<?xml version="1.0" encoding="UTF-8"?>

<!-- generated on 09/24/20 15:55:08 by Eclipse SUMO duarouter Version 1.6.0
<configuration xmlns:xsi="http://www.w3.org/2001/XMLSchema-instance" xsi:noNamespaceSchemaLocation="http://sumo.dlr.de/xsd/duarouterConfiguration.xsd">

    <input>
        <net-file value="osm.net.xml"/>
        <route-files value="osm.bicycle.trips.xml"/>
    </input>

    <output>
        <output-file value="osm.bicycle.trips.xml.tmp"/>
        <write-trips value="true"/>
    </output>

    <time>
        <begin value="0"/>
        <end value="1800.0"/>
    </time>

    <report>
        <no-warnings value="true"/>
        <ignore-errors value="true"/>
        <no-step-log value="true"/>
    </report>

</configuration>
-->

<routes xmlns:xsi="http://www.w3.org/2001/XMLSchema-instance" xsi:noNamespaceSchemaLocation="http://sumo.dlr.de/xsd/routes_file.xsd">
    <vType id="bike_bicycle" vClass="bicycle"/>
    <trip id="bike0" type="bike_bicycle" depart="0.00" departLane="best" from="227041387#0" to="-14314595#3"/>
    <trip id="bike1" type="bike_bicycle" depart="4.00" departLane="best" from="-600075999#1" to="-544023463#1"/>
    <trip id="bike2" type="bike_bicycle" depart="8.00" departLane="best" departSpeed="max" from="575289590" to="397861213"/>
    <trip id="bike3" type="bike_bicycle" depart="12.00" departLane="best" from="734006551#5" to="-226002297#1"/>
    <trip id="bike4" type="bike_bicycle" depart="16.00" departLane="best" from="-88794279#5" to="-14316799#1"/>
    <trip id="bike5" type="bike_bicycle" depart="20.00" departLane="best" from="-423692235" to="223566156"/>
    <trip id="bike6" type="bike_bicycle" depart="24.00" departLane="best" from="-14315445#1" to="-256459853#8"/>
    <trip id="bike7" type="bike_bicycle" depart="28.00" departLane="best" from="238469565#4" to="226508914#5"/>
    <trip id="bike8" type="bike_bicycle" depart="32.00" departLane="best" from="-446966544#0" to="227012779#13"/>
    <trip id="bike9" type="bike_bicycle" depart="36.00" departLane="best" from="600708019#4" to="-14301362#3"/>
    <trip id="bike10" type="bike_bicycle" depart="40.00" departLane="best" from="600169151" to="457999404"/>
    <trip id="bike11" type="bike_bicycle" depart="44.00" departLane="best" from="-753819834" to="-227012783#2"/>
    <trip id="bike12" type="bike_bicycle" depart="48.00" departLane="best" from="793664579" to="-754030903#2"/>
    <trip id="bike13" type="bike_bicycle" depart="52.00" departLane="best" from="-226002356#0" to="-226002370#2"/>
    <trip id="bike14" type="bike_bicycle" depart="56.00" departLane="best" from="649705401#3" to="227012790#0"/>
    <trip id="bike15" type="bike_bicycle" depart="60.00" departLane="best" from="600708010" to="575967920#0"/>
    <trip id="bike16" type="bike_bicycle" depart="64.00" departLane="best" from="226002314#4" to="822453001"/>
    <trip id="bike17" type="bike_bicycle" depart="68.00" departLane="best" departSpeed="max" from="-791870521#1" to="226572698#0"/>
    <trip id="bike18" type="bike_bicycle" depart="72.00" departLane="best" from="618190060#5" to="227041380"/>
    <trip id="bike19" type="bike_bicycle" depart="76.00" departLane="best" from="651269295" to="227012766#3"/>
    <trip id="bike20" type="bike_bicycle" depart="80.00" departLane="best" from="423692998#0" to="-14324847#2"/>
    <trip id="bike21" type="bike_bicycle" depart="84.00" departLane="best" from="-544022853#1" to="-618461708"/>
    <trip id="bike22" type="bike_bicycle" depart="88.00" departLane="best" from="-223565365#1" to="-575967917#2"/>
    <trip id="bike23" type="bike_bicycle" depart="92.00" departLane="best" from="-226002377" to="-600712593#7"/>
    <trip id="bike24" type="bike_bicycle" depart="96.00" departLane="best" from="227041369" to="-791924167#1"/>
    <trip id="bike25" type="bike_bicycle" depart="100.00" departLane="best" from="-789994495" to="-363977743"/>
    <trip id="bike26" type="bike_bicycle" depart="104.00" departLane="best" from="-586121645#2" to="791838883"/>
    <trip id="bike27" type="bike_bicycle" depart="108.00" departLane="best" from="238469565#0" to="227012790#22"/>
    <trip id="bike28" type="bike_bicycle" depart="112.00" departLane="best" from="-227012790#21" to="575967918#3"/>
    <trip id="bike29" type="bike_bicycle" depart="116.00" departLane="best" from="-227012787#2" to="-812410353#0"/>
    <trip id="bike30" type="bike_bicycle" depart="120.00" departLane="best" from="845025387#1" to="256459853#3"/>
    <trip id="bike31" type="bike_bicycle" depart="124.00" departLane="best" from="226002383#1" to="423692807"/>
    <trip id="bike32" type="bike_bicycle" depart="128.00" departLane="best" from="649144366" to="600069603#1"/>
    <trip id="bike33" type="bike_bicycle" depart="132.00" departLane="best" from="-544023463#2" to="-14318582"/>
    <trip id="bike34" type="bike_bicycle" depart="136.00" departLane="best" from="-675938177" to="-599724273#1"/>
    <trip id="bike35" type="bike_bicycle" depart="140.00" departLane="best" departSpeed="max" from="-329178215" to="791908635"/>
    <trip id="bike36" type="bike_bicycle" depart="144.00" departLane="best" from="675938173#0" to="-705922537#1"/>
    <trip id="bike37" type="bike_bicycle" depart="148.00" departLane="best" from="238469632" to="-848246774#2"/>
    <trip id="bike38" type="bike_bicycle" depart="152.00" departLane="best" from="754272346#0" to="146610532#1"/>
    <trip id="bike40" type="bike_bicycle" depart="160.00" departLane="best" from="226002408#4" to="-575973084#2"/>
    <trip id="bike41" type="bike_bicycle" depart="164.00" departLane="best" from="226734109#0" to="754030904"/>
    <trip id="bike42" type="bike_bicycle" depart="168.00" departLane="best" from="-808958604#0" to="-446966555"/>
    <trip id="bike43" type="bike_bicycle" depart="172.00" departLane="best" from="88794279#6" to="223566164"/>
    <trip id="bike44" type="bike_bicycle" depart="176.00" departLane="best" from="-226002314#1" to="-146610532#0"/>
    <trip id="bike45" type="bike_bicycle" depart="180.00" departLane="best" from="-226508916#0" to="227041407#0"/>
    <trip id="bike46" type="bike_bicycle" depart="184.00" departLane="best" from="600060667#2" to="143104885#2"/>
    <trip id="bike47" type="bike_bicycle" depart="188.00" departLane="best" from="-207127684#1" to="-814048666"/>
    <trip id="bike48" type="bike_bicycle" depart="192.00" departLane="best" from="88794279#3" to="226002366#0"/>
    <trip id="bike49" type="bike_bicycle" depart="196.00" departLane="best" from="822081470#0" to="675938175#1"/>
    <trip id="bike50" type="bike_bicycle" depart="200.00" departLane="best" from="-14305591#6" to="574634609"/>
    <trip id="bike51" type="bike_bicycle" depart="204.00" departLane="best" from="325840061#3" to="226002383#6"/>
    <trip id="bike52" type="bike_bicycle" depart="208.00" departLane="best" from="-586121645#1" to="256459853#5"/>
    <trip id="bike53" type="bike_bicycle" depart="212.00" departLane="best" from="-226508917#0" to="14318520#3"/>
    <trip id="bike54" type="bike_bicycle" depart="216.00" departLane="best" departSpeed="max" from="14315164#0" to="798288864"/>
    <trip id="bike56" type="bike_bicycle" depart="224.00" departLane="best" from="204346655" to="-227041389"/>
    <trip id="bike57" type="bike_bicycle" depart="228.00" departLane="best" from="754155930" to="705608730#0"/>
    <trip id="bike58" type="bike_bicycle" depart="232.00" departLane="best" departSpeed="max" from="-639491513" to="256459853#0"/>
    <trip id="bike59" type="bike_bicycle" depart="236.00" departLane="best" from="227012779#13" to="-227012781#0"/>
    <trip id="bike60" type="bike_bicycle" depart="240.00" departLane="best" from="575967951" to="226002408#3"/>
    <trip id="bike61" type="bike_bicycle" depart="244.00" departLane="best" from="579316918#1" to="226002366#3"/>
    <trip id="bike62" type="bike_bicycle" depart="248.00" departLane="best" from="-130776853#1" to="-753315553#1"/>
    <trip id="bike63" type="bike_bicycle" depart="252.00" departLane="best" from="-14312265#0" to="789994494"/>
    <trip id="bike64" type="bike_bicycle" depart="256.00" departLane="best" from="675938175#3" to="649705401#8"/>
    <trip id="bike65" type="bike_bicycle" depart="260.00" departLane="best" from="-651364958#7" to="-204736407#2"/>
    <trip id="bike66" type="bike_bicycle" depart="264.00" departLane="best" from="675938175#2" to="791924170"/>
    <trip id="bike67" type="bike_bicycle" depart="268.00" departLane="best" from="-223566162" to="206292002"/>
    <trip id="bike68" type="bike_bicycle" depart="272.00" departLane="best" from="-207630742#2" to="592339825#1"/>
    <trip id="bike69" type="bike_bicycle" depart="276.00" departLane="best" departSpeed="max" from="575967965" to="-226737945#0"/>
    <trip id="bike70" type="bike_bicycle" depart="280.00" departLane="best" from="14322061#8" to="226508917#6"/>
    <trip id="bike72" type="bike_bicycle" depart="288.00" departLane="best" from="130776851#0" to="-423690870#0"/>
    <trip id="bike73" type="bike_bicycle" depart="292.00" departLane="best" from="226002322#6" to="575967920#0"/>
    <trip id="bike74" type="bike_bicycle" depart="296.00" departLane="best" from="-256459853#5" to="-705608727#0"/>
    <trip id="bike75" type="bike_bicycle" depart="300.00" departLane="best" from="88794279#0" to="269922642#0"/>
    <trip id="bike76" type="bike_bicycle" depart="304.00" departLane="best" from="14305591#5" to="226002322#6"/>
    <trip id="bike77" type="bike_bicycle" depart="308.00" departLane="best" from="-226734102#1" to="-571834590#1"/>
    <trip id="bike78" type="bike_bicycle" depart="312.00" departLane="best" from="-753806898" to="227012779#11"/>
    <trip id="bike79" type="bike_bicycle" depart="316.00" departLane="best" departSpeed="max" from="-571834590#3" to="-523568456#0"/>
    <trip id="bike80" type="bike_bicycle" depart="320.00" departLane="best" from="-208084752#1" to="238469565#6"/>
    <trip id="bike81" type="bike_bicycle" depart="324.00" departLane="best" from="-544023463#2" to="762163558"/>
    <trip id="bike82" type="bike_bicycle" depart="328.00" departLane="best" from="651269277#2" to="-223314246#0"/>
    <trip id="bike84" type="bike_bicycle" depart="336.00" departLane="best" from="-397861227#0" to="-227012762#0"/>
    <trip id="bike85" type="bike_bicycle" depart="340.00" departLane="best" from="789659856#0" to="226947389#1"/>
    <trip id="bike86" type="bike_bicycle" depart="344.00" departLane="best" from="14321966#2" to="600159272#0"/>
    <trip id="bike87" type="bike_bicycle" depart="348.00" departLane="best" from="600708019#0" to="-238469567#4"/>
    <trip id="bike88" type="bike_bicycle" depart="352.00" departLane="best" from="-226002370#0" to="14315445#0"/>
    <trip id="bike89" type="bike_bicycle" depart="356.00" departLane="best" from="130776851#1" to="180250515#0"/>
    <trip id="bike90" type="bike_bicycle" depart="360.00" departLane="best" from="524550931#2" to="396445684#0"/>
    <trip id="bike91" type="bike_bicycle" depart="364.00" departLane="best" from="843791990#3" to="-226002375#0"/>
    <trip id="bike92" type="bike_bicycle" depart="368.00" departLane="best" from="-814048664" to="-754272346#1"/>
    <trip id="bike93" type="bike_bicycle" depart="372.00" departLane="best" from="651269295" to="-575967951"/>
    <trip id="bike94" type="bike_bicycle" depart="376.00" departLane="best" from="-238469565#3" to="14321966#2"/>
    <trip id="bike95" type="bike_bicycle" depart="380.00" departLane="best" from="-88794279#5" to="-600712596#0"/>
    <trip id="bike97" type="bike_bicycle" depart="388.00" departLane="best" from="14307333#3" to="675938175#3"/>
    <trip id="bike98" type="bike_bicycle" depart="392.00" departLane="best" from="226002365#2" to="-146610532#9"/>
    <trip id="bike99" type="bike_bicycle" depart="396.00" departLane="best" from="gneE4" to="650444346"/>
    <trip id="bike100" type="bike_bicycle" depart="400.00" departLane="best" from="814781109#0" to="789659858"/>
    <trip id="bike101" type="bike_bicycle" depart="404.00" departLane="best" from="649705401#7" to="-227012790#18"/>
    <trip id="bike102" type="bike_bicycle" depart="408.00" departLane="best" from="146610532#9" to="-423690870#5"/>
    <trip id="bike103" type="bike_bicycle" depart="412.00" departLane="best" from="-812410353#0" to="-204736407#4"/>
    <trip id="bike104" type="bike_bicycle" depart="416.00" departLane="best" departSpeed="max" from="-791870521#1" to="843918085"/>
    <trip id="bike106" type="bike_bicycle" depart="424.00" departLane="best" from="14315165#0" to="14312265#1"/>
    <trip id="bike107" type="bike_bicycle" depart="428.00" departLane="best" from="793664579" to="88794279#1"/>
    <trip id="bike108" type="bike_bicycle" depart="432.00" departLane="best" from="226002375#3" to="574634479"/>
    <trip id="bike109" type="bike_bicycle" depart="436.00" departLane="best" from="-227012780#0" to="-650732310#2"/>
    <trip id="bike110" type="bike_bicycle" depart="440.00" departLane="best" from="814048666" to="227012767#1"/>
    <trip id="bike111" type="bike_bicycle" depart="444.00" departLane="best" from="226002348#12" to="575973062#1"/>
    <trip id="bike112" type="bike_bicycle" depart="448.00" departLane="best" from="-204736407#3" to="227012768#7"/>
    <trip id="bike113" type="bike_bicycle" depart="452.00" departLane="best" from="206128523#0" to="658513913"/>
    <trip id="bike114" type="bike_bicycle" depart="456.00" departLane="best" from="-227012782#0" to="808269305#2"/>
    <trip id="bike115" type="bike_bicycle" depart="460.00" departLane="best" from="-223565365#2" to="-238469565#0"/>
    <trip id="bike116" type="bike_bicycle" depart="464.00" departLane="best" from="227012765#0" to="397861211#0"/>
    <trip id="bike117" type="bike_bicycle" depart="468.00" departLane="best" from="-575967912#1" to="-226734106#0"/>
    <trip id="bike118" type="bike_bicycle" depart="472.00" departLane="best" from="705922541" to="-575967945#0"/>
    <trip id="bike119" type="bike_bicycle" depart="476.00" departLane="best" from="227012764#2" to="227041385"/>
    <trip id="bike120" type="bike_bicycle" depart="480.00" departLane="best" from="-848246774#2" to="227012768#6"/>
    <trip id="bike121" type="bike_bicycle" depart="484.00" departLane="best" from="223565364#1" to="791838879#1"/>
    <trip id="bike122" type="bike_bicycle" depart="488.00" departLane="best" departSpeed="max" from="-299564622" to="555272426"/>
    <trip id="bike123" type="bike_bicycle" depart="492.00" departLane="best" from="-575967917#2" to="-848382857"/>
    <trip id="bike124" type="bike_bicycle" depart="496.00" departLane="best" from="269922644#1" to="-651364957#0"/>
    <trip id="bike125" type="bike_bicycle" depart="500.00" departLane="best" departSpeed="max" from="-675938179" to="575973080"/>
    <trip id="bike126" type="bike_bicycle" depart="504.00" departLane="best" from="-223314246#3" to="146610532#0"/>
    <trip id="bike127" type="bike_bicycle" depart="508.00" departLane="best" from="gneE2" to="88794279#3"/>
    <trip id="bike128" type="bike_bicycle" depart="512.00" departLane="best" departSpeed="max" from="-223314247" to="-423690870#4"/>
    <trip id="bike130" type="bike_bicycle" depart="520.00" departLane="best" from="691332409#0-AddedOffRampEdge" to="734006551#5"/>
    <trip id="bike131" type="bike_bicycle" depart="524.00" departLane="best" from="-789994493#1" to="-227012785#2"/>
    <trip id="bike132" type="bike_bicycle" depart="528.00" departLane="best" from="625498788#0" to="491478520#5"/>
    <trip id="bike133" type="bike_bicycle" depart="532.00" departLane="best" from="227012779#8" to="845014148#1"/>
    <trip id="bike134" type="bike_bicycle" depart="536.00" departLane="best" from="238469567#8" to="-14303243#2"/>
    <trip id="bike135" type="bike_bicycle" depart="540.00" departLane="best" from="601999668#0" to="-651269318"/>
    <trip id="bike136" type="bike_bicycle" depart="544.00" departLane="best" from="25794060#2" to="791903748#0"/>
    <trip id="bike137" type="bike_bicycle" depart="548.00" departLane="best" departSpeed="max" from="-226947389#1" to="-226734099#2"/>
    <trip id="bike138" type="bike_bicycle" depart="552.00" departLane="best" from="-226508914#2" to="226572698#5"/>
    <trip id="bike139" type="bike_bicycle" depart="556.00" departLane="best" from="-600060667#2" to="227012790#12"/>
    <trip id="bike140" type="bike_bicycle" depart="560.00" departLane="best" from="457999622" to="-325840057"/>
    <trip id="bike141" type="bike_bicycle" depart="564.00" departLane="best" from="227012794" to="-579316920"/>
    <trip id="bike142" type="bike_bicycle" depart="568.00" departLane="best" from="180250513#1" to="762163558"/>
    <trip id="bike143" type="bike_bicycle" depart="572.00" departLane="best" from="649705401#13" to="-226002363#0"/>
    <trip id="bike144" type="bike_bicycle" depart="576.00" departLane="best" from="130776851#1" to="-600712593#4"/>
    <trip id="bike145" type="bike_bicycle" depart="580.00" departLane="best" from="-14295418#1" to="600060667#1"/>
    <trip id="bike146" type="bike_bicycle" depart="584.00" departLane="best" from="227041376" to="-575973084#0"/>
    <trip id="bike147" type="bike_bicycle" depart="588.00" departLane="best" from="575967912#1" to="226572697"/>
    <trip id="bike148" type="bike_bicycle" depart="592.00" departLane="best" from="130776870#1" to="-14305591#0"/>
    <trip id="bike149" type="bike_bicycle" depart="596.00" departLane="best" from="-223314250#3" to="753315551"/>
    <trip id="bike150" type="bike_bicycle" depart="600.00" departLane="best" from="753806898" to="226508916#0"/>
    <trip id="bike151" type="bike_bicycle" depart="604.00" departLane="best" from="625523014" to="227012768#3"/>
    <trip id="bike152" type="bike_bicycle" depart="608.00" departLane="best" from="-227012769" to="-226734111#2"/>
    <trip id="bike153" type="bike_bicycle" depart="612.00" departLane="best" from="-651364959#0" to="754196278#1"/>
    <trip id="bike154" type="bike_bicycle" depart="616.00" departLane="best" from="600069603#0" to="675938175#1"/>
    <trip id="bike155" type="bike_bicycle" depart="620.00" departLane="best" from="753315553#0" to="-397861211#0"/>
    <trip id="bike156" type="bike_bicycle" depart="624.00" departLane="best" departSpeed="max" from="-575967945#1" to="-226002415#2"/>
    <trip id="bike157" type="bike_bicycle" depart="628.00" departLane="best" from="586121645#1" to="753315552#2"/>
    <trip id="bike158" type="bike_bicycle" depart="632.00" departLane="best" from="-822453001" to="227041391"/>
    <trip id="bike159" type="bike_bicycle" depart="636.00" departLane="best" from="-227012779#9" to="790178581"/>
    <trip id="bike160" type="bike_bicycle" depart="640.00" departLane="best" from="651364902" to="840025188#1"/>
    <trip id="bike161" type="bike_bicycle" depart="644.00" departLane="best" from="600712591" to="753315547#2"/>
    <trip id="bike162" type="bike_bicycle" depart="648.00" departLane="best" from="-14314595#2" to="575967939#1"/>
    <trip id="bike163" type="bike_bicycle" depart="652.00" departLane="best" departSpeed="max" from="-753315550" to="790192780#0"/>
    <trip id="bike164" type="bike_bicycle" depart="656.00" departLane="best" from="600081395#2" to="689003948#1"/>
    <trip id="bike165" type="bike_bicycle" depart="660.00" departLane="best" from="600712591" to="-594470117#1"/>
    <trip id="bike166" type="bike_bicycle" depart="664.00" departLane="best" from="594470117#0" to="-226508917#0"/>
    <trip id="bike168" type="bike_bicycle" depart="672.00" departLane="best" from="-446966548#0" to="625523014"/>
    <trip id="bike169" type="bike_bicycle" depart="676.00" departLane="best" from="14318522#2" to="-674621859"/>
    <trip id="bike170" type="bike_bicycle" depart="680.00" departLane="best" from="600064691#3" to="-575289598"/>
    <trip id="bike171" type="bike_bicycle" depart="684.00" departLane="best" from="-14314230#3" to="-238469632"/>
    <trip id="bike172" type="bike_bicycle" depart="688.00" departLane="best" from="-744223929" to="689003948#1"/>
    <trip id="bike173" type="bike_bicycle" depart="692.00" departLane="best" from="812410354" to="-610387581"/>
    <trip id="bike174" type="bike_bicycle" depart="696.00" departLane="best" from="227041394" to="130776851#1"/>
    <trip id="bike175" type="bike_bicycle" depart="700.00" departLane="best" from="843775045#1" to="226002383#4"/>
    <trip id="bike176" type="bike_bicycle" depart="704.00" departLane="best" from="790178582" to="-226734099#1"/>
    <trip id="bike177" type="bike_bicycle" depart="708.00" departLane="best" from="814781109#4" to="-227041389"/>
    <trip id="bike178" type="bike_bicycle" depart="712.00" departLane="best" from="808269305#2" to="-586121645#3"/>
    <trip id="bike179" type="bike_bicycle" depart="716.00" departLane="best" departSpeed="max" from="-226508914#5" to="14318520#3"/>
    <trip id="bike180" type="bike_bicycle" depart="720.00" departLane="best" from="524550931#1" to="-705613696#0"/>
    <trip id="bike181" type="bike_bicycle" depart="724.00" departLane="best" from="227012776#0" to="226002297#2"/>
    <trip id="bike182" type="bike_bicycle" depart="728.00" departLane="best" departSpeed="max" from="-791924170" to="227012766#1"/>
    <trip id="bike183" type="bike_bicycle" depart="732.00" departLane="best" from="-575967956" to="523572059"/>
    <trip id="bike184" type="bike_bicycle" depart="736.00" departLane="best" from="-130776860#0" to="789659856#2"/>
    <trip id="bike185" type="bike_bicycle" depart="740.00" departLane="best" from="226002322#4" to="574634608"/>
    <trip id="bike186" type="bike_bicycle" depart="744.00" departLane="best" from="575967914" to="359235005#1"/>
    <trip id="bike187" type="bike_bicycle" depart="748.00" departLane="best" from="-776389373" to="-208084752#0"/>
    <trip id="bike188" type="bike_bicycle" depart="752.00" departLane="best" from="25794060#4" to="-753819833#1"/>
    <trip id="bike189" type="bike_bicycle" depart="756.00" departLane="best" from="-675938175#1" to="651364903"/>
    <trip id="bike190" type="bike_bicycle" depart="760.00" departLane="best" from="491477891#1" to="-651364957#1"/>
    <trip id="bike191" type="bike_bicycle" depart="764.00" departLane="best" from="-661579785" to="14301362#3"/>
    <trip id="bike192" type="bike_bicycle" depart="768.00" departLane="best" from="-814048664" to="-650732310#0"/>
    <trip id="bike193" type="bike_bicycle" depart="772.00" departLane="best" from="-226734109#1" to="14307499#1"/>
    <trip id="bike194" type="bike_bicycle" depart="776.00" departLane="best" departSpeed="max" from="790435501" to="397861227#0"/>
    <trip id="bike195" type="bike_bicycle" depart="780.00" departLane="best" from="753315558" to="227041367"/>
    <trip id="bike196" type="bike_bicycle" depart="784.00" departLane="best" from="-649705403#2" to="226508917#1"/>
    <trip id="bike197" type="bike_bicycle" depart="788.00" departLane="best" from="-130776853#1" to="-618190060#4"/>
    <trip id="bike198" type="bike_bicycle" depart="792.00" departLane="best" from="14298867#0" to="227012768#1"/>
    <trip id="bike199" type="bike_bicycle" depart="796.00" departLane="best" from="238469585" to="180250513#3"/>
    <trip id="bike200" type="bike_bicycle" depart="800.00" departLane="best" from="14307333#0" to="-423690870#5"/>
    <trip id="bike201" type="bike_bicycle" depart="804.00" departLane="best" from="14322061#0" to="754272346#3"/>
    <trip id="bike202" type="bike_bicycle" depart="808.00" departLane="best" from="600064691#4" to="-227012790#6"/>
    <trip id="bike203" type="bike_bicycle" depart="812.00" departLane="best" from="-223566161#0" to="226002322#0"/>
    <trip id="bike204" type="bike_bicycle" depart="816.00" departLane="best" from="227012791#1" to="-753846147"/>
    <trip id="bike205" type="bike_bicycle" depart="820.00" departLane="best" from="601999668#3" to="575973076"/>
    <trip id="bike206" type="bike_bicycle" depart="824.00" departLane="best" from="269922646#1" to="-571834590#1"/>
    <trip id="bike207" type="bike_bicycle" depart="828.00" departLane="best" from="-256459853#0" to="-14314595#1"/>
    <trip id="bike208" type="bike_bicycle" depart="832.00" departLane="best" departSpeed="max" from="-575967926#1" to="204345600"/>
    <trip id="bike209" type="bike_bicycle" depart="836.00" departLane="best" from="649705402#1" to="-223314250#0"/>
    <trip id="bike210" type="bike_bicycle" depart="840.00" departLane="best" departSpeed="max" from="-843918085" to="238469565#3"/>
    <trip id="bike211" type="bike_bicycle" depart="844.00" departLane="best" from="-238469567#6" to="446966564"/>
    <trip id="bike212" type="bike_bicycle" depart="848.00" departLane="best" from="198217580#1" to="-575967938"/>
    <trip id="bike213" type="bike_bicycle" depart="852.00" departLane="best" from="238469656" to="-14300218#1"/>
    <trip id="bike214" type="bike_bicycle" depart="856.00" departLane="best" departSpeed="max" from="575967929" to="600051347#7"/>
    <trip id="bike215" type="bike_bicycle" depart="860.00" departLane="best" from="-226508914#1" to="14313657#0"/>
    <trip id="bike216" type="bike_bicycle" depart="864.00" departLane="best" from="-227012793#2" to="798430850"/>
    <trip id="bike217" type="bike_bicycle" depart="868.00" departLane="best" from="223314246#2" to="-146610532#9"/>
    <trip id="bike218" type="bike_bicycle" depart="872.00" departLane="best" departSpeed="max" from="-575967945#1" to="651364931"/>
    <trip id="bike219" type="bike_bicycle" depart="876.00" departLane="best" from="14315445#1" to="610387583#0"/>
    <trip id="bike220" type="bike_bicycle" depart="880.00" departLane="best" from="269922625#1" to="845014150#0"/>
    <trip id="bike221" type="bike_bicycle" depart="884.00" departLane="best" from="227012765#1" to="791940219#0"/>
    <trip id="bike222" type="bike_bicycle" depart="888.00" departLane="best" from="734006551#2" to="227012791#0"/>
    <trip id="bike223" type="bike_bicycle" depart="892.00" departLane="best" from="491477888#2" to="223566155#1"/>
    <trip id="bike224" type="bike_bicycle" depart="896.00" departLane="best" from="618461707#0" to="226508917#1"/>
    <trip id="bike225" type="bike_bicycle" depart="900.00" departLane="best" from="753315549#0" to="575967956"/>
    <trip id="bike226" type="bike_bicycle" depart="904.00" departLane="best" from="14322061#6" to="-575973073"/>
    <trip id="bike227" type="bike_bicycle" depart="908.00" departLane="best" departSpeed="max" from="-575967935" to="256406628#3"/>
    <trip id="bike228" type="bike_bicycle" depart="912.00" departLane="best" departSpeed="max" from="575967965" to="226002348#13"/>
    <trip id="bike229" type="bike_bicycle" depart="916.00" departLane="best" from="227012790#17" to="-600081395#4"/>
    <trip id="bike230" type="bike_bicycle" depart="920.00" departLane="best" from="-223565364#0" to="-618190060#1"/>
    <trip id="bike232" type="bike_bicycle" depart="928.00" departLane="best" from="226002322#8" to="-227012767#0"/>
    <trip id="bike234" type="bike_bicycle" depart="936.00" departLane="best" from="423693000" to="-207212842#1"/>
    <trip id="bike235" type="bike_bicycle" depart="940.00" departLane="best" from="-838959887" to="226508913"/>
    <trip id="bike236" type="bike_bicycle" depart="944.00" departLane="best" from="-845014148#1" to="-325840062"/>
    <trip id="bike237" type="bike_bicycle" depart="948.00" departLane="best" from="-88794279#1" to="762163557"/>
    <trip id="bike238" type="bike_bicycle" depart="952.00" departLane="best" from="226734108#3" to="446966555"/>
    <trip id="bike239" type="bike_bicycle" depart="956.00" departLane="best" from="651269270" to="594470106#1"/>
    <trip id="bike240" type="bike_bicycle" depart="960.00" departLane="best" from="-791903749#1" to="-14300218#1"/>
    <trip id="bike241" type="bike_bicycle" depart="964.00" departLane="best" departSpeed="max" from="-756912006" to="575973084#2"/>
    <trip id="bike242" type="bike_bicycle" depart="968.00" departLane="best" from="650444346" to="798288863"/>
    <trip id="bike243" type="bike_bicycle" depart="972.00" departLane="best" from="-848246774#2" to="575973062#0"/>
    <trip id="bike244" type="bike_bicycle" depart="976.00" departLane="best" from="226002348#6" to="227012789#2"/>
    <trip id="bike245" type="bike_bicycle" depart="980.00" departLane="best" from="-446966544#1" to="-457999404"/>
    <trip id="bike246" type="bike_bicycle" depart="984.00" departLane="best" from="14304740-AddedOffRampEdge" to="-14315445#3"/>
    <trip id="bike247" type="bike_bicycle" depart="988.00" departLane="best" from="-753315557#0" to="423690514"/>
    <trip id="bike248" type="bike_bicycle" depart="992.00" departLane="best" from="-814781109#2" to="-227012790#15"/>
    <trip id="bike249" type="bike_bicycle" depart="996.00" departLane="best" from="14320655#3" to="-226734111#2"/>
    <trip id="bike250" type="bike_bicycle" depart="1000.00" departLane="best" from="227012789#0" to="-14315164#1"/>
    <trip id="bike251" type="bike_bicycle" depart="1004.00" departLane="best" departSpeed="max" from="-798430849" to="226734109#1"/>
    <trip id="bike252" type="bike_bicycle" depart="1008.00" departLane="best" from="-14315445#2" to="257612756"/>
    <trip id="bike253" type="bike_bicycle" depart="1012.00" departLane="best" from="-227012762#0" to="146610533"/>
    <trip id="bike255" type="bike_bicycle" depart="1020.00" departLane="best" from="-329178216#2" to="-753315557#1"/>
    <trip id="bike256" type="bike_bicycle" depart="1024.00" departLane="best" departSpeed="max" from="575967949" to="-808958605"/>
    <trip id="bike257" type="bike_bicycle" depart="1028.00" departLane="best" departSpeed="max" from="575967933" to="649705401#8"/>
    <trip id="bike258" type="bike_bicycle" depart="1032.00" departLane="best" from="-575967950" to="-223566158#1"/>
    <trip id="bike259" type="bike_bicycle" depart="1036.00" departLane="best" from="-14312265#0" to="226002408#3"/>
    <trip id="bike260" type="bike_bicycle" depart="1040.00" departLane="best" from="gneE6" to="-776580039"/>