<?xml version="1.0" encoding="UTF-8"?>

<!-- generated on 09/17/20 14:27:34 by Eclipse SUMO polyconvert Version 1.6.0
<configuration xmlns:xsi="http://www.w3.org/2001/XMLSchema-instance" xsi:noNamespaceSchemaLocation="http://sumo.dlr.de/xsd/polyconvertConfiguration.xsd">

    <input>
        <net-file value="osm.net.xml"/>
        <osm-files value="osm_bbox.osm.xml"/>
        <osm.keep-full-type value="true"/>
        <type-file value="C:\Program%20Files%20(x86)\Eclipse\Sumo\data\typemap\osmPolyconvert.typ.xml"/>
    </input>

    <output>
        <output-file value="osm.poly.xml"/>
    </output>

    <processing>
        <poi-layer-offset value="5"/>
    </processing>

    <report>
        <verbose value="true"/>
    </report>

</configuration>
-->

<additional xmlns:xsi="http://www.w3.org/2001/XMLSchema-instance" xsi:noNamespaceSchemaLocation="http://sumo.dlr.de/xsd/additional_file.xsd">
    <location netOffset="-663646.88,-3998822.70" convBoundary="0.00,0.00,11635.61,7550.61" origBoundary="-115.181604,36.120300,-115.051366,36.187909" projParameter="+proj=utm +zone=11 +ellps=WGS84 +datum=WGS84 +units=m +no_defs"/>

    <poly id="106086432" type="amenity.parking" color="184,184,179" fill="1" layer="-1.00" shape="3144.213799,6163.390442 3140.197201,6163.113917 3137.523850,6128.804482 3163.254138,6127.531755 3164.141893,6114.509024 3191.226300,6104.062335 3198.629247,6111.228661 3200.330767,6123.413086 3210.396063,6124.038339 3211.614655,6157.243526 3207.612397,6158.099202 3206.982935,6162.315360 3144.223504,6167.119427 3144.213799,6163.390442"/>
    <poly id="106086432#1" type="building.yes" color="255,230,230" fill="1" layer="-1.00" shape="3144.213799,6163.390442 3140.197201,6163.113917 3137.523850,6128.804482 3163.254138,6127.531755 3164.141893,6114.509024 3191.226300,6104.062335 3198.629247,6111.228661 3200.330767,6123.413086 3210.396063,6124.038339 3211.614655,6157.243526 3207.612397,6158.099202 3206.982935,6162.315360 3144.223504,6167.119427 3144.213799,6163.390442"/>
    <poly id="106228873" type="building.yes" color="255,230,230" fill="1" layer="-1.00" shape="3153.913448,6107.355308 3188.580313,6090.450460 3185.309426,6085.993272 3201.372236,6077.411169 3206.768809,6072.808957 3155.344739,5978.805693 3152.988675,5974.499178 3108.572929,6000.562089 3109.855895,6009.231644 3099.215264,6015.165307 3105.297710,6024.581325 3101.482895,6025.984416 3103.470441,6029.329480 3099.005526,6033.206016 3117.772753,6074.736765 3123.763085,6071.078050 3126.436266,6075.268545 3130.255762,6072.678111 3134.385553,6081.157929 3110.672620,6095.508992 3122.348954,6122.477370 3131.031583,6125.772829 3157.575690,6113.462412 3153.913448,6107.355308"/>
    <poly id="106228873#1" type="tourism.hotel" color="207,245,201" fill="1" layer="-2.00" shape="3153.913448,6107.355308 3188.580313,6090.450460 3185.309426,6085.993272 3201.372236,6077.411169 3206.768809,6072.808957 3155.344739,5978.805693 3152.988675,5974.499178 3108.572929,6000.562089 3109.855895,6009.231644 3099.215264,6015.165307 3105.297710,6024.581325 3101.482895,6025.984416 3103.470441,6029.329480 3099.005526,6033.206016 3117.772753,6074.736765 3123.763085,6071.078050 3126.436266,6075.268545 3130.255762,6072.678111 3134.385553,6081.157929 3110.672620,6095.508992 3122.348954,6122.477370 3131.031583,6125.772829 3157.575690,6113.462412 3153.913448,6107.355308"/>
    <poly id="106229298" type="amenity.parking" color="184,184,179" fill="1" layer="-1.00" shape="3141.511517,5954.992173 3119.484557,5911.701165 3066.272449,5938.517320 3054.140357,5914.658769 3106.561988,5888.249141 3070.165371,5816.684477 2978.149819,5863.057543 3083.748983,6070.701887 3107.706295,6058.630431 3072.645835,5989.699166 3141.511517,5954.992173"/>
    <poly id="106369641" type="amenity.place_of_worship" color="237,199,199" fill="1" layer="-1.00" shape="3266.941843,4804.803406 3281.183360,4797.939935 3276.940731,4789.213786 3262.690208,4796.077091 3266.941843,4804.803406"/>
    <poly id="106369641#1" type="building.yes" color="255,230,230" fill="1" layer="-1.00" shape="3266.941843,4804.803406 3281.183360,4797.939935 3276.940731,4789.213786 3262.690208,4796.077091 3266.941843,4804.803406"/>
    <poly id="106370559" type="amenity.parking" color="184,184,179" fill="1" layer="-1.00" shape="3257.304547,4808.070515 3248.216046,4812.757520 3243.268164,4803.263269 3252.356672,4798.576259 3257.304547,4808.070515"/>
    <poly id="129478114" type="amenity.parking" color="184,184,179" fill="1" layer="-1.00" shape="4060.559780,6457.806587 4111.120409,6440.700362 4204.446667,6441.773753 4229.777305,6442.072393 4251.249107,6442.319052 4271.038826,6442.544491 4284.927434,6442.711892 4288.642584,6442.750100 4308.189468,6442.970950 4330.875462,6443.241175 4351.133086,6443.464706 4371.903154,6443.709248 4391.917731,6443.939291 4409.764334,6444.149821 4440.402290,6444.506901 4446.923989,6444.577043 4453.255036,6454.076575 4453.418905,6460.982510 4451.350993,6467.912036 4447.335617,6473.183780 4438.124630,6475.403449 4420.771220,6474.347833 4412.312022,6474.906255 4401.900248,6484.349639 4347.487787,6533.729857 4317.003094,6550.200158 4290.039093,6561.389227 4255.582465,6569.204761 4201.797959,6579.933521 4101.158449,6592.902324 4060.559780,6457.806587"/>
    <poly id="130585530" type="amenity.theatre" color="237,199,199" fill="1" layer="-1.00" shape="2519.165311,5510.892519 2541.640276,5496.838090 2548.101925,5492.533193 2563.768616,5482.089066 2620.034836,5453.707735 2576.304556,5350.177995 2556.381221,5314.319719 2441.874875,5359.859713 2519.165311,5510.892519"/>
    <poly id="130585531" type="landuse.residential" color="235,235,227" fill="1" layer="-3.00" shape="708.253541,5718.230181 686.109719,5820.031735 941.883884,5819.702308 935.696801,6096.722512 1127.577887,6108.033972 1163.582242,6143.937266 1394.258627,6145.755540 1611.188854,6108.533785 1609.679054,5933.586273 1746.715192,5935.838211 1748.019691,5819.050490 1744.422265,5806.142493 1744.521523,5796.156612 1498.470090,5790.853667 1500.327801,5616.114374 1630.300193,5619.118361 1631.974592,5520.715231 1558.287553,5519.397906 1559.825882,5401.038951 1512.083252,5400.002300 1517.152237,5145.888052 1369.687181,5143.454341 1366.308543,5414.524053 1247.037809,5411.693028 1251.070646,5140.569244 968.415424,5129.463862 755.605179,5118.384362 742.607220,5122.434289 733.922707,5131.570400 728.877552,5142.883558 727.412817,5571.871732 708.253541,5718.230181"/>
    <poly id="130585532" type="landuse.residential" color="235,235,227" fill="1" layer="-3.00" shape="2983.191171,4820.701598 3028.219778,4798.167425 3046.502098,4833.695821 3100.552236,4806.684380 3146.003004,4896.788330 3046.706435,4946.473402 2983.191171,4820.701598"/>
    <poly id="130585533" type="landuse.residential" color="235,235,227" fill="1" layer="-3.00" shape="2747.109670,4611.337908 2847.116439,4559.421179 2873.474612,4611.338879 2772.068614,4663.506055 2747.109670,4611.337908"/>
    <poly id="130585537" type="landuse.commercial" color="209,209,204" fill="1" layer="-3.00" shape="3199.917199,4857.112550 3174.660457,4810.330736 3213.428216,4789.586645 3238.694032,4836.357654 3199.917199,4857.112550"/>
    <poly id="130585539" type="landuse.commercial" color="209,209,204" fill="1" layer="-3.00" shape="3112.531950,5078.393603 3211.925021,5026.902264 3185.528712,4972.918448 3289.498555,4920.760737 3251.673215,4847.037511 3047.907958,4950.469281 3112.531950,5078.393603"/>
    <poly id="130585543" type="building.yes" color="255,230,230" fill="1" layer="-1.00" shape="2014.927409,5384.417538 2057.992246,5363.594783 2092.384269,5346.968880 2107.767155,5376.092358 2182.858853,5437.589587 2139.768723,5470.640729 2099.098579,5501.840342 2058.729364,5467.437249 2014.927409,5384.417538"/>
    <poly id="130585544" type="amenity.clinic" color="237,199,199" fill="1" layer="-1.00" shape="2376.638225,5223.561511 2290.410089,5213.432332 2286.394781,5218.272216 2280.243916,5254.510839 2280.914347,5283.621335 2290.492316,5316.086154 2325.103458,5380.255427 2418.096677,5343.082808 2388.183951,5265.152767 2376.638225,5223.561511"/>
    <poly id="130585545" type="landuse.commercial" color="209,209,204" fill="1" layer="-3.00" shape="2826.128048,5979.311287 2913.635853,5995.996020 2954.677751,5995.336734 2998.533702,5973.590440 3069.727800,6113.714698 2811.885571,6042.950645 2826.128048,5979.311287"/>
    <poly id="130585546" type="landuse.residential" color="235,235,227" fill="1" layer="-3.00" shape="717.260576,3498.283006 1328.529152,3493.460993 1369.654002,3525.676936 1494.044898,3677.954610 1495.308950,3757.225463 1496.909550,3857.721037 1497.567356,3899.082618 1608.903634,3909.023537 1620.888083,3927.261523 1602.890328,3963.797836 1635.149620,3986.381324 1644.109128,3999.912260 1656.625452,4038.535340 1657.612208,4102.886088 1383.602156,4104.916774 1233.031589,4102.072519 1236.037148,4249.836315 1057.566586,4241.995904 1058.206282,4105.498401 715.683118,4095.205009 717.260576,3498.283006"/>
    <poly id="130585547" type="landuse.commercial" color="209,209,204" fill="1" layer="-3.00" shape="3077.049333,5264.554965 3176.529332,5213.575486 3241.751208,5341.079647 3141.029388,5392.112291 3077.049333,5264.554965"/>
    <poly id="130585549" type="amenity.conference_centre" color="237,199,199" fill="1" layer="-1.00" shape="1930.092037,5150.081863 2244.336235,5201.226041 2243.819585,5279.076547 2285.293647,5382.705755 2390.850179,5594.245878 2204.006000,5696.541880 2176.025513,5697.330838 2000.173751,5399.884931 1939.296547,5250.222879 1930.092037,5150.081863"/>
    <poly id="130585549#1" type="landuse.retail" color="194,194,130" fill="1" layer="-3.00" shape="1930.092037,5150.081863 2244.336235,5201.226041 2243.819585,5279.076547 2285.293647,5382.705755 2390.850179,5594.245878 2204.006000,5696.541880 2176.025513,5697.330838 2000.173751,5399.884931 1939.296547,5250.222879 1930.092037,5150.081863"/>
    <poly id="130585552" type="landuse.commercial" color="209,209,204" fill="1" layer="-3.00" shape="2293.511419,5120.815731 2285.883934,5174.138687 2431.147133,5200.095004 2470.645838,5205.529733 2511.661988,5204.989750 2538.409969,5195.766367 2590.616735,5165.642850 2287.385406,4545.458640 2083.570485,4659.898191 2267.730573,5010.504483 2287.249016,5066.818144 2293.511419,5120.815731"/>
    <poly id="130585555" type="building.yes" color="255,230,230" fill="1" layer="-1.00" shape="2114.945563,5266.274344 2193.107639,5228.728921 2263.329478,5368.949006 2188.337227,5403.568742 2120.582343,5277.445623 2114.945563,5266.274344"/>
    <poly id="130585557" type="building.yes" color="255,230,230" fill="1" layer="-1.00" shape="1979.964124,5259.495107 1997.798340,5250.511593 1997.885631,5235.953302 2028.001554,5234.616056 2066.710053,5214.365382 2076.852581,5232.780067 2087.452430,5232.792653 2089.952527,5261.305277 2103.507356,5286.720745 2111.905346,5303.171386 2092.612937,5313.125758 2092.581969,5322.813313 2074.816972,5322.464925 2033.632065,5343.312194 2026.492708,5346.827773 2014.691184,5324.797156 2001.567942,5325.469203 2000.096416,5294.900897 1979.964124,5259.495107"/>
    <poly id="130585558" type="landuse.commercial" color="209,209,204" fill="1" layer="-3.00" shape="3151.916419,5399.223033 3241.235247,5355.829603 3296.584759,5468.707563 3207.266737,5512.100403 3151.916419,5399.223033"/>
    <poly id="130585559" type="landuse.residential" color="235,235,227" fill="1" layer="-3.00" shape="3740.815457,5573.997827 3651.171970,5618.800458 3625.663722,5568.960357 3614.796736,5548.154888 3705.310422,5501.637311 3720.716768,5533.006119 3740.815457,5573.997827"/>
    <poly id="130585560" type="building.yes" color="255,230,230" fill="1" layer="-1.00" shape="3396.652012,5001.869752 3416.373835,4992.170509 3425.812442,4987.523675 3434.697158,5000.533656 3443.320421,5014.038035 3452.551770,5030.561519 3459.979878,5045.385854 3463.010436,5054.421839 3456.261974,5058.154631 3460.989254,5067.400656 3467.247790,5064.346542 3477.068084,5083.944276 3447.051481,5098.839761 3432.672208,5070.132445 3431.146777,5067.084698 3422.906676,5071.177382 3414.269159,5026.444057 3377.974408,5044.005143 3365.351723,5020.358783 3367.930612,5019.142993 3360.826016,5007.154826 3376.190258,4998.037990 3392.258701,4991.154176 3396.652012,5001.869752"/>
    <poly id="130590851" type="amenity.school" color="237,199,199" fill="1" layer="-1.00" shape="5008.116690,4798.313914 5004.274365,4997.210786 5094.957862,4998.963134 5098.802255,4800.066228 5008.116690,4798.313914"/>
    <poly id="130590856" type="landuse.retail" color="194,194,130" fill="1" layer="-3.00" shape="1891.384201,4507.301549 1918.898525,4498.545728 1976.684411,4498.887037 1999.388505,4570.075448 2013.756582,4616.735642 2252.920515,5069.605934 2257.873343,5095.457440 2258.104117,5122.140303 2253.916466,5164.930502 2250.075862,5168.153482 2247.330217,5169.632763 2244.448940,5170.199470 2064.716590,5138.775594 2029.395777,5130.336909 1968.565064,5122.801555 1901.189649,5123.476744 1877.816854,4963.739889 1869.873242,4873.444237 1867.777541,4827.349860 1865.874648,4585.477022 1871.473878,4544.555709 1880.205946,4525.411598 1891.384201,4507.301549"/>
    <poly id="130590856#1" type="shop.mall" color="237,199,255" fill="1" layer="-1.00" shape="1891.384201,4507.301549 1918.898525,4498.545728 1976.684411,4498.887037 1999.388505,4570.075448 2013.756582,4616.735642 2252.920515,5069.605934 2257.873343,5095.457440 2258.104117,5122.140303 2253.916466,5164.930502 2250.075862,5168.153482 2247.330217,5169.632763 2244.448940,5170.199470 2064.716590,5138.775594 2029.395777,5130.336909 1968.565064,5122.801555 1901.189649,5123.476744 1877.816854,4963.739889 1869.873242,4873.444237 1867.777541,4827.349860 1865.874648,4585.477022 1871.473878,4544.555709 1880.205946,4525.411598 1891.384201,4507.301549"/>
    <poly id="130590857" type="amenity.school" color="237,199,199" fill="1" layer="-1.00" shape="3388.498724,3781.110711 3385.847570,3919.724417 3619.550629,3924.197465 3622.205495,3785.583697 3388.498724,3781.110711"/>
    <poly id="130590858" type="leisure.park" color="207,245,201" fill="1" layer="-2.00" shape="3947.907574,3965.605660 3964.657680,3998.354418 3974.503498,4019.451342 3980.934084,4037.020261 3983.991784,4054.013950 3985.354610,4083.348972 3983.935810,4101.000274 3978.632602,4125.035837 3969.132395,4148.768889 3962.085723,4163.770811 3955.605144,4174.599794 3949.952870,4179.784882 3943.524360,4181.337247 3938.218893,4181.113353 3933.429030,4179.345687 3929.744267,4176.267515 3921.504676,4164.800908 3911.048933,4144.069652 3906.003979,4130.267274 3899.050446,4108.992867 3897.136724,4089.124681 3897.453115,4066.535973 3900.909413,4043.530310 3907.573909,4023.116463 3915.950474,4002.125101 3939.223759,3965.083888 3947.907574,3965.605660"/>
    <poly id="130590859" type="amenity.school" color="237,199,199" fill="1" layer="-1.00" shape="4769.175986,3856.622928 4759.026224,4034.789270 4898.308718,4038.919060 4904.183644,3861.824377 4769.175986,3856.622928"/>
    <poly id="130590860" type="building.yes" color="255,230,230" fill="1" layer="-1.00" shape="3634.063431,5814.734360 3631.043883,5813.600014 3629.786412,5818.647536 3629.390360,5824.288646 3629.617163,5827.478017 3626.853063,5827.569309 3626.891517,5833.074478 3628.658331,5839.478389 3631.696673,5848.081811 3640.493478,5844.488320 3643.441101,5842.802489 3644.673486,5839.064010 3669.983704,5847.084502 3667.598605,5849.935263 3665.784330,5853.518315 3664.679049,5858.135943 3635.703765,5873.272587 3661.277277,5924.345883 3683.856148,5912.904279 3690.038950,5924.098281 3717.357453,5910.428230 3706.712139,5889.360507 3731.834737,5876.658274 3746.656005,5869.995405 3719.978017,5816.004177 3699.731147,5843.304568 3697.290825,5841.526543 3692.530116,5839.692930 3685.417478,5838.979479 3678.008231,5838.249250 3685.753344,5813.483522 3691.699957,5814.474252 3694.659174,5804.676279 3700.065813,5803.326154 3704.918223,5800.378441 3708.186886,5796.967554 3709.389583,5795.248285 3705.877161,5788.378074 3706.503504,5786.214945 3699.675886,5785.651220 3692.100346,5786.083046 3685.219980,5788.270538 3679.495093,5791.201534 3674.029477,5795.158488 3670.908206,5798.860752 3665.346510,5801.728300 3662.537341,5802.762017 3657.617379,5789.050891 3651.926717,5791.605241 3648.087460,5794.272767 3644.099039,5797.680977 3637.465083,5805.322171 3634.063431,5814.734360"/>
    <poly id="130590863" type="amenity.school" color="237,199,199" fill="1" layer="-1.00" shape="3971.957738,3347.385506 3968.923657,3505.490633 4095.421269,3507.919115 4150.878695,3508.984357 4153.520742,3371.457695 4153.916073,3350.879174 3971.957738,3347.385506"/>
    <poly id="130590864" type="landuse.brownfield" color="194,194,130" fill="1" layer="-3.00" shape="1372.936897,4902.034744 1378.929236,4711.648841 1562.890223,4715.127959 1561.232939,4906.850005 1372.936897,4902.034744"/>
    <poly id="130590869" type="landuse.retail" color="194,194,130" fill="1" layer="-3.00" shape="4752.349070,4358.624384 5146.238854,4361.424392 5147.976784,4306.901576 5152.745787,4157.030241 5077.783211,4156.302870 5078.321647,4128.435812 4758.992050,4119.630467 4752.349070,4358.624384"/>
    <poly id="130590871" type="amenity.university" color="237,199,199" fill="1" layer="-1.00" shape="1378.264183,4369.745557 1452.087259,4370.564021 1453.050778,4321.509240 1565.822343,4327.126835 1581.288529,4329.217271 1605.593515,4336.457774 1654.331728,4343.683666 1672.959855,4346.078271 1668.071128,4507.798118 1628.297254,4507.211610 1626.953199,4588.674983 1656.292399,4589.496744 1655.901909,4616.300877 1540.765446,4614.587871 1541.206613,4584.610833 1421.643658,4582.826771 1421.891719,4566.373914 1376.828419,4565.699635 1377.535227,4518.304622 1378.264183,4369.745557"/>
    <poly id="130591848" type="landuse.residential" color="235,235,227" fill="1" layer="-3.00" shape="4759.026224,4034.789270 4758.992050,4119.630467 5078.321647,4128.435812 5077.783211,4156.302870 5152.745787,4157.030241 5147.976784,4306.901576 5721.625189,4316.810864 5722.324291,4280.767789 5754.180016,4281.385727 5758.152268,4101.212899 5936.666566,4107.563175 5936.020620,4066.211419 5957.719378,4067.598327 5983.179884,3203.809596 5897.862259,3202.852374 5689.367008,3197.842590 5604.405120,3215.694695 5572.639469,3216.732826 5494.882823,3217.635056 5506.661592,2927.280270 5552.522551,2928.168391 5553.860831,2833.974614 5521.074257,2831.419770 5518.881291,2869.830917 5476.011044,2870.665544 5474.383406,2855.241497 5444.316454,2855.414135 5441.757273,2869.514192 5347.482613,2868.921853 5315.705238,2864.456294 5271.824826,2861.210625 5272.550750,2830.184378 5201.509645,2827.157495 5199.704539,2970.382839 4807.294428,2969.277084 4798.203860,3158.772182 4791.512587,3330.734868 4784.077868,3641.126872 4772.008148,3657.951261 4766.813356,3841.928418 4900.317086,3847.189574 4904.183644,3861.824377 4898.308718,4038.919060 4759.026224,4034.789270"/>
    <poly id="130628954" type="landuse.residential" color="235,235,227" fill="1" layer="-3.00" shape="1834.113707,2696.083807 1799.440132,2696.181743 1623.954608,2707.275875 1585.220535,2725.997043 1742.791280,3035.945449 1763.777630,3100.752496 1797.324471,3101.132552 1800.621470,3143.753790 1880.869615,3138.549005 1881.360473,3153.018316 1882.728678,3193.383567 1869.196553,3194.092625 1882.314303,3393.352261 1915.181072,3391.567031 1918.202824,3435.847775 2037.833980,3428.716687 2038.812730,3442.596019 2041.451050,3480.011321 2122.421408,3474.545172 2115.879084,3425.181415 2271.210767,3419.208292 2258.515684,3235.125893 2058.010150,3243.338541 2054.787496,3196.867711 2007.159242,3200.547612 1997.550186,3032.815600 2006.193421,3009.419545 2023.683804,2991.273923 2037.398476,2980.958128 2032.955751,2935.207729 2166.310001,2929.081833 2163.243656,2887.197192 2177.527943,2886.247597 2174.727257,2841.748988 2031.919794,2849.826260 2024.380628,2750.915726 1835.930745,2757.920002 1835.249987,2743.014310 1834.113707,2696.083807"/>
    <poly id="130776849" type="amenity.college" color="237,199,199" fill="1" layer="-1.00" shape="4527.352148,5542.418020 4548.481528,5546.542886 4550.612851,5407.452057 4477.890072,5449.853656 4527.352148,5542.418020"/>
    <poly id="130776854" type="landuse.commercial" color="209,209,204" fill="1" layer="-3.00" shape="3659.249353,5133.988480 3759.001850,5083.153766 3782.690613,5127.033141 3682.024544,5177.661397 3659.249353,5133.988480"/>
    <poly id="130776855" type="amenity.police" color="237,199,199" fill="1" layer="-1.00" shape="4072.812009,6227.132551 4024.876926,6126.731792 4114.562960,6082.377863 4116.165469,6053.310545 4163.448415,6054.241816 4161.761300,6223.393621 4072.812009,6227.132551"/>
    <poly id="130776856" type="amenity.fire_station" color="237,199,199" fill="1" layer="-1.00" shape="4353.061047,4431.579739 4401.986322,4528.127684 4470.818413,4493.718214 4439.732173,4426.067563 4353.061047,4431.579739"/>
    <poly id="130776857" type="landuse.commercial" color="209,209,204" fill="1" layer="-3.00" shape="4495.070911,6036.332011 4496.107539,5982.528097 4555.547003,5828.927020 4564.669279,5829.946259 4562.885877,6037.783128 4495.070911,6036.332011"/>
    <poly id="130776858" type="landuse.residential" color="235,235,227" fill="1" layer="-3.00" shape="3615.507692,5054.590136 3563.474769,5080.094474 3522.229984,4998.536064 3501.637707,4957.813016 3493.305060,4941.351078 3492.663606,4940.073669 3472.461183,4900.123908 3524.060155,4875.232148 3615.507692,5054.590136"/>
    <poly id="130776859" type="amenity.place_of_worship" color="237,199,199" fill="1" layer="-1.00" shape="3850.639614,5021.954598 3808.462038,5043.562691 3746.277556,4924.069276 3790.398102,4900.644822 3850.639614,5021.954598"/>
    <poly id="130776862" type="landuse.residential" color="235,235,227" fill="1" layer="-3.00" shape="3467.979528,4891.204416 3615.273349,4817.418248 3592.435491,4772.246221 3605.755748,4765.576470 3653.694369,4741.569692 3676.496878,4786.696822 3722.409363,4763.705859 3595.570196,4512.755112 3443.801288,4588.775606 3341.109244,4640.212621 3418.982023,4794.272297 3421.097775,4798.452193 3467.979528,4891.204416"/>
    <poly id="130776869" type="landuse.residential" color="235,235,227" fill="1" layer="-3.00" shape="4390.696930,4915.496808 4544.185568,4840.102777 4557.340569,4834.108217 4604.454682,4844.149466 4613.034302,4836.024836 4692.695744,4860.632618 4867.972078,4772.335856 4896.176977,4736.346626 4911.352316,4675.602165 4963.186554,4691.496162 4989.219747,4692.964454 4990.481798,4627.623266 5014.064040,4627.401820 5045.260863,4627.116698 5046.261844,4589.281709 5099.355917,4589.830488 5100.222701,4569.660478 5158.833546,4570.671363 5159.414967,4590.869373 5219.760440,4590.593582 5218.906046,4498.898686 5232.192533,4485.694107 5235.988854,4485.767534 5251.012210,4486.058126 5250.437433,4440.868135 4453.197316,4425.960559 4491.892680,4508.784047 4401.473332,4556.183832 4352.839305,4459.475015 4197.110523,4539.279734 4144.974398,4438.776076 4107.079156,4459.333236 4092.774142,4467.093114 4076.909900,4438.433864 3781.537265,4585.612766 3839.184126,4701.112843 3898.964207,4815.566775 3945.589401,4791.103552 3961.598369,4822.051486 3806.888299,4899.951218 3869.361328,5026.886056 3761.164748,5081.108887 3829.420805,5207.688317 3932.224652,5154.483720 3978.453073,5254.162631 4028.676435,5229.191967 4000.163023,5170.470389 4053.337836,5143.658821 4031.794044,5103.426574 4390.696930,4915.496808"/>
    <poly id="130776871" type="leisure.park" color="207,245,201" fill="1" layer="-2.00" shape="2545.740535,5563.623615 2523.112249,5518.624976 2637.849241,5458.064410 2661.820820,5505.741280 2545.740535,5563.623615"/>
    <poly id="130776874" type="landuse.residential" color="235,235,227" fill="1" layer="-3.00" shape="4362.120524,5685.303816 4358.569451,5626.706230 4452.678874,5579.632857 4471.301186,5622.817548 4362.120524,5685.303816"/>
    <poly id="132156993" type="building.yes" color="255,230,230" fill="1" layer="-1.00" shape="3635.820926,5039.864386 3657.345524,5029.079360 3660.423233,5035.175456 3657.124951,5036.832378 3659.500607,5041.527815 3663.543951,5039.496756 3681.014110,5074.045601 3676.525539,5076.301168 3679.126333,5081.455930 3682.715432,5079.649224 3685.420339,5085.005741 3663.832230,5095.822770 3660.667783,5089.558544 3663.202784,5088.286510 3655.287045,5072.631410 3653.424501,5073.561210 3647.155986,5061.167099 3649.218556,5060.130155 3641.632258,5045.125047 3639.115452,5046.386339 3635.820926,5039.864386"/>
    <poly id="132156995" type="amenity.theatre" color="237,199,199" fill="1" layer="-1.00" shape="3694.298959,4812.407204 3726.585279,4875.872009 3767.157423,4855.420154 3734.880512,4791.944273 3694.298959,4812.407204"/>
    <poly id="132156995#1" type="building.yes" color="255,230,230" fill="1" layer="-1.00" shape="3694.298959,4812.407204 3726.585279,4875.872009 3767.157423,4855.420154 3734.880512,4791.944273 3694.298959,4812.407204"/>
    <poly id="132156996" type="building.yes" color="255,230,230" fill="1" layer="-1.00" shape="3683.532306,4950.177692 3709.272710,4936.832348 3722.693138,4962.481017 3696.952784,4975.826319 3683.532306,4950.177692"/>
    <poly id="132156997" type="building.yes" color="255,230,230" fill="1" layer="-1.00" shape="3657.765961,5023.105794 3696.568976,5003.829391 3676.287667,4963.355995 3637.484528,4982.632492 3657.765961,5023.105794"/>
    <poly id="132156998" type="landuse.retail" color="194,194,130" fill="1" layer="-3.00" shape="3204.679298,5528.364428 3138.821603,5398.872936 2992.132592,5472.822258 3058.842103,5603.960189 3003.111643,5632.049322 3031.061877,5686.583954 3133.421859,5886.287625 3235.638286,5833.974227 3303.314604,5965.021964 3517.229671,5854.933169 3545.698611,5840.385713 3706.051298,5757.241410 3600.172437,5555.787271 3614.796736,5548.154888 3705.310422,5501.637311 3714.023120,5497.287623 3752.407507,5572.932814 4358.564735,5257.153107 4302.433854,5146.205940 3996.147521,5289.127131 3978.453073,5254.162631 3931.257759,5161.256923 3826.738406,5213.829342 3782.690613,5127.033141 3682.024544,5177.661397 3678.535495,5179.414531 3656.276213,5135.585047 3348.920564,5290.337913 3415.842850,5421.926722 3257.976296,5501.495109 3204.679298,5528.364428"/>
    <poly id="132156999" type="amenity.place_of_worship" color="237,199,199" fill="1" layer="-1.00" shape="3705.846210,4703.405663 3749.833658,4681.809515 3764.960395,4712.351702 3771.674901,4725.897494 3776.691324,4736.014854 3732.704065,4757.610861 3705.846210,4703.405663"/>
    <poly id="132157001" type="leisure.pitch" color="207,245,201" fill="1" layer="-2.00" shape="3592.510074,4850.563580 3610.229765,4886.215682 3554.523673,4913.636225 3536.812821,4877.984412 3592.510074,4850.563580"/>
    <poly id="132157001#1" type="sport.tennis" color="79,230,125" fill="1" layer="-2.00" shape="3592.510074,4850.563580 3610.229765,4886.215682 3554.523673,4913.636225 3536.812821,4877.984412 3592.510074,4850.563580"/>
    <poly id="132157002" type="landuse.commercial" color="209,209,204" fill="1" layer="-3.00" shape="3084.143280,4764.954796 3183.145782,4713.821733 3053.340848,4458.539429 2953.573447,4507.684094 3084.143280,4764.954796"/>
    <poly id="132157004" type="building.yes" color="255,230,230" fill="1" layer="-1.00" shape="3696.382306,5068.491732 3787.128322,5022.334320 3794.146236,5035.996947 3790.402258,5037.900518 3792.067882,5041.139683 3709.028128,5083.371935 3707.154676,5079.707092 3703.174518,5081.728245 3696.382306,5068.491732"/>
    <poly id="132157005" type="leisure.pitch" color="207,245,201" fill="1" layer="-2.00" shape="3559.421208,4917.281263 3636.560641,4878.219393 3674.307731,4952.098341 3597.177734,4991.160037 3559.421208,4917.281263"/>
    <poly id="132157006" type="building.yes" color="255,230,230" fill="1" layer="-1.00" shape="3716.869456,4987.905028 3733.305784,4979.686064 3741.576471,4996.069387 3751.754005,5016.251384 3756.106117,5024.868922 3739.669848,5033.087842 3716.869456,4987.905028"/>
    <poly id="132157009" type="landuse.commercial" color="209,209,204" fill="1" layer="-3.00" shape="3472.461183,4900.123908 3320.782595,4976.059106 3387.292276,5107.273361 3284.140451,5157.669860 3347.979832,5287.301365 3653.314959,5131.866075 3615.507692,5054.590136 3563.474769,5080.094474 3522.229984,4998.536064 3501.637707,4957.813016 3493.305060,4941.351078 3492.663606,4940.073669 3472.461183,4900.123908"/>
    <poly id="132157010" type="building.yes" color="255,230,230" fill="1" layer="-1.00" shape="3459.924560,5543.235268 3405.925243,5438.461027 3326.686295,5478.927167 3365.719964,5554.671671 3380.677254,5583.700727 3459.924560,5543.235268"/>
    <poly id="132157010#1" type="tourism.hotel" color="207,245,201" fill="1" layer="-2.00" shape="3459.924560,5543.235268 3405.925243,5438.461027 3326.686295,5478.927167 3365.719964,5554.671671 3380.677254,5583.700727 3459.924560,5543.235268"/>
    <poly id="132157011" type="leisure.pitch" color="207,245,201" fill="1" layer="-2.00" shape="3610.229765,4886.215682 3635.205314,4873.809860 3618.131039,4838.292143 3592.510074,4850.563580 3610.229765,4886.215682"/>
    <poly id="132157011#1" type="sport.basketball" color="79,230,125" fill="1" layer="-2.00" shape="3610.229765,4886.215682 3635.205314,4873.809860 3618.131039,4838.292143 3592.510074,4850.563580 3610.229765,4886.215682"/>
    <poly id="132157012" type="landuse.commercial" color="209,209,204" fill="1" layer="-3.00" shape="3605.755748,4765.576470 3629.170060,4810.249088 3676.496878,4786.696822 3653.694369,4741.569692 3605.755748,4765.576470"/>
    <poly id="132157013" type="building.yes" color="255,230,230" fill="1" layer="-1.00" shape="3690.751342,5008.756201 3717.040102,4995.432496 3738.775878,5037.942564 3712.496200,5051.266373 3690.751342,5008.756201"/>