<?xml version="1.0" encoding="UTF-8"?>

<!-- generated on 09/24/20 15:48:01 by Eclipse SUMO netedit Version 1.6.0
<configuration xmlns:xsi="http://www.w3.org/2001/XMLSchema-instance" xsi:noNamespaceSchemaLocation="http://sumo.dlr.de/xsd/netconvertConfiguration.xsd">

    <input>
        <sumo-net-file value="osm.net.xml"/>
    </input>

    <output>
        <output-file value="osm.net.xml"/>
        <output.street-names value="true"/>
    </output>

    <processing>
        <geometry.min-radius.fix.railways value="false"/>
        <geometry.max-grade.fix value="false"/>
        <offset.disable-normalization value="true"/>
        <lefthand value="false"/>
    </processing>

    <junctions>
        <no-turnarounds value="true"/>
        <junctions.corner-detail value="5"/>
        <junctions.limit-turn-speed value="5.5"/>
        <rectangular-lane-cut value="false"/>
    </junctions>

    <pedestrian>
        <walkingareas value="false"/>
    </pedestrian>

    <netedit>
        <additional-files value="C:\Users\jose0\PycharmProjects\CUTMaC-CloudApps\datasets\la_vegas_sumo\e2detect.add.xml"/>
    </netedit>

    <report>
        <aggregate-warnings value="5"/>
    </report>

</configuration>
-->

<additional xmlns:xsi="http://www.w3.org/2001/XMLSchema-instance" xsi:noNamespaceSchemaLocation="http://sumo.dlr.de/xsd/additional_file.xsd">
    <e2Detector id="e2Detector_-14300218#0_0_41" lane="-14300218#0_0" pos="38.06" length="10.00" freq="900.00" file="e2Detector_-14300218#0_0_41.xml"/>
    <e2Detector id="e2Detector_-14301362#2_0_9" lane="-14301362#2_0" pos="44.02" length="10.00" freq="900.00" file="e2Detector_-14301362#2_0_9.xml"/>
    <e2Detector id="e2Detector_-14303243#0_0_44" lane="-14303243#0_0" pos="38.61" length="10.00" freq="900.00" file="e2Detector_-14303243#0_0_44.xml"/>
    <e2Detector id="e2Detector_-14312503#0_0_101" lane="-14312503#0_0" pos="26.51" length="10.00" freq="900.00" file="e2Detector_-14312503#0_0_101.xml"/>
    <e2Detector id="e2Detector_-14314230#0_0_45" lane="-14314230#0_0" pos="35.04" length="10.00" freq="900.00" file="e2Detector_-14314230#0_0_45.xml"/>
    <e2Detector id="e2Detector_-14314595#1_0_86" lane="-14314595#1_0" pos="33.41" length="10.00" freq="900.00" file="e2Detector_-14314595#1_0_86.xml"/>
    <e2Detector id="e2Detector_-14315445#0_0_42" lane="-14315445#0_0" pos="33.38" length="10.00" freq="900.00" file="e2Detector_-14315445#0_0_42.xml"/>
    <e2Detector id="e2Detector_-14318522#1_0_87" lane="-14318522#1_0" pos="29.72" length="10.00" freq="900.00" file="e2Detector_-14318522#1_0_87.xml"/>
    <e2Detector id="e2Detector_-14321966#0_0_70" lane="-14321966#0_0" pos="85.97" length="10.00" freq="900.00" file="e2Detector_-14321966#0_0_70.xml"/>
    <e2Detector id="e2Detector_-423692235_0_106" lane="-423692235_0" pos="46.87" length="10.00" freq="900.00" file="e2Detector_-423692235_0_106.xml"/>
    <e2Detector id="e2Detector_-423692235_1_105" lane="-423692235_1" pos="46.94" length="10.00" freq="900.00" file="e2Detector_-423692235_1_105.xml"/>
    <e2Detector id="e2Detector_-423692807_0_103" lane="-423692807_0" pos="120.85" length="10.00" freq="900.00" file="e2Detector_-423692807_0_103.xml"/>
    <e2Detector id="e2Detector_-423692807_1_104" lane="-423692807_1" pos="120.72" length="10.00" freq="900.00" file="e2Detector_-423692807_1_104.xml"/>
    <e2Detector id="e2Detector_-600712596#0_0_2" lane="-600712596#0_0" pos="28.82" length="10.00" freq="900.00" file="e2Detector_-600712596#0_0_2.xml"/>
    <e2Detector id="e2Detector_-618190060#0_0_14" lane="-618190060#0_0" pos="0.60" length="10.00" freq="900.00" file="e2Detector_-618190060#0_0_14.xml"/>
    <e2Detector id="e2Detector_-625523014_0_67" lane="-625523014_0" pos="35.77" length="10.00" freq="900.00" file="e2Detector_-625523014_0_67.xml"/>
    <e2Detector id="e2Detector_-651269318_0_85" lane="-651269318_0" pos="32.26" length="10.00" freq="900.00" file="e2Detector_-651269318_0_85.xml"/>
    <e2Detector id="e2Detector_-674621859_0_93" lane="-674621859_0" pos="38.80" length="10.00" freq="900.00" file="e2Detector_-674621859_0_93.xml"/>
    <e2Detector id="e2Detector_-674621859_1_94" lane="-674621859_1" pos="39.38" length="10.00" freq="900.00" file="e2Detector_-674621859_1_94.xml"/>
    <e2Detector id="e2Detector_-674621860_0_108" lane="-674621860_0" pos="88.82" length="10.00" freq="900.00" file="e2Detector_-674621860_0_108.xml"/>
    <e2Detector id="e2Detector_-705613696#0_0_52" lane="-705613696#0_0" pos="80.26" length="10.00" freq="900.00" file="e2Detector_-705613696#0_0_52.xml"/>
    <e2Detector id="e2Detector_-705613696#0_1_51" lane="-705613696#0_1" pos="78.92" length="10.00" freq="900.00" file="e2Detector_-705613696#0_1_51.xml"/>
    <e2Detector id="e2Detector_-734006551#0_0_54" lane="-734006551#0_0" pos="19.65" length="10.00" freq="900.00" file="e2Detector_-734006551#0_0_54.xml"/>
    <e2Detector id="e2Detector_-734006551#0_1_53" lane="-734006551#0_1" pos="19.17" length="10.00" freq="900.00" file="e2Detector_-734006551#0_1_53.xml"/>
    <e2Detector id="e2Detector_-734006551#6_0_50" lane="-734006551#6_0" pos="5.35" length="10.00" freq="900.00" file="e2Detector_-734006551#6_0_50.xml"/>
    <e2Detector id="e2Detector_-734006551#6_1_47" lane="-734006551#6_1" pos="5.20" length="10.00" freq="900.00" file="e2Detector_-734006551#6_1_47.xml"/>
    <e2Detector id="e2Detector_-776580038_0_29" lane="-776580038_0" pos="73.65" length="10.00" freq="900.00" file="e2Detector_-776580038_0_29.xml"/>
    <e2Detector id="e2Detector_-848246773_0_92" lane="-848246773_0" pos="3.77" length="10.00" freq="900.00" file="e2Detector_-848246773_0_92.xml"/>
    <e2Detector id="e2Detector_130776851#1_0_7" lane="130776851#1_0" pos="98.25" length="10.00" freq="900.00" file="e2Detector_130776851#1_0_7.xml"/>
    <e2Detector id="e2Detector_130776853#3_0_11" lane="130776853#3_0" pos="45.61" length="10.00" freq="900.00" file="e2Detector_130776853#3_0_11.xml"/>
    <e2Detector id="e2Detector_130776860#1_0_6" lane="130776860#1_0" pos="61.84" length="10.00" freq="900.00" file="e2Detector_130776860#1_0_6.xml"/>
    <e2Detector id="e2Detector_14320536#7_0_34" lane="14320536#7_0" pos="12.76" length="10.00" freq="900.00" file="e2Detector_14320536#7_0_34.xml"/>
    <e2Detector id="e2Detector_14320536#7_1_35" lane="14320536#7_1" pos="13.12" length="10.00" freq="900.00" file="e2Detector_14320536#7_1_35.xml"/>
    <e2Detector id="e2Detector_226002336_0_71" lane="226002336_0" pos="123.63" length="10.00" freq="900.00" file="e2Detector_226002336_0_71.xml"/>
    <e2Detector id="e2Detector_226002336_1_72" lane="226002336_1" pos="125.01" length="10.00" freq="900.00" file="e2Detector_226002336_1_72.xml"/>
    <e2Detector id="e2Detector_226737945#0_0_21" lane="226737945#0_0" pos="62.31" length="10.00" freq="900.00" file="e2Detector_226737945#0_0_21.xml"/>
    <e2Detector id="e2Detector_227012776#1_0_22" lane="227012776#1_0" pos="35.46" length="10.00" freq="900.00" file="e2Detector_227012776#1_0_22.xml"/>
    <e2Detector id="e2Detector_359235005#2_0_30" lane="359235005#2_0" pos="271.60" length="10.00" freq="900.00" file="e2Detector_359235005#2_0_30.xml"/>
    <e2Detector id="e2Detector_359235005#2_1_31" lane="359235005#2_1" pos="272.31" length="10.00" freq="900.00" file="e2Detector_359235005#2_1_31.xml"/>
    <e2Detector id="e2Detector_423692234_0_91" lane="423692234_0" pos="59.97" length="10.00" freq="900.00" file="e2Detector_423692234_0_91.xml"/>
    <e2Detector id="e2Detector_423692234_1_90" lane="423692234_1" pos="59.41" length="10.00" freq="900.00" file="e2Detector_423692234_1_90.xml"/>
    <e2Detector id="e2Detector_423692807_0_100" lane="423692807_0" pos="121.07" length="10.00" freq="900.00" file="e2Detector_423692807_0_100.xml"/>
    <e2Detector id="e2Detector_423692807_1_99" lane="423692807_1" pos="120.91" length="10.00" freq="900.00" file="e2Detector_423692807_1_99.xml"/>
    <e2Detector id="e2Detector_423696022_0_33" lane="423696022_0" pos="92.62" length="10.00" freq="900.00" file="e2Detector_423696022_0_33.xml"/>
    <e2Detector id="e2Detector_423696022_1_32" lane="423696022_1" pos="88.88" length="10.00" freq="900.00" file="e2Detector_423696022_1_32.xml"/>
    <e2Detector id="e2Detector_446966547#1_0_107" lane="446966547#1_0" pos="31.74" length="10.00" freq="900.00" file="e2Detector_446966547#1_0_107.xml"/>
    <e2Detector id="e2Detector_491477888#2_0_102" lane="491477888#2_0" pos="304.67" length="10.00" freq="900.00" file="e2Detector_491477888#2_0_102.xml"/>
    <e2Detector id="e2Detector_524550931#0_0_23" lane="524550931#0_0" pos="184.56" length="10.00" freq="900.00" file="e2Detector_524550931#0_0_23.xml"/>
    <e2Detector id="e2Detector_524550931#1_0_20" lane="524550931#1_0" pos="171.88" length="10.00" freq="900.00" file="e2Detector_524550931#1_0_20.xml"/>
    <e2Detector id="e2Detector_524550931#2_0_25" lane="524550931#2_0" pos="64.29" length="10.00" freq="900.00" file="e2Detector_524550931#2_0_25.xml"/>
    <e2Detector id="e2Detector_524550931#3_0_16" lane="524550931#3_0" pos="97.77" length="10.00" freq="900.00" file="e2Detector_524550931#3_0_16.xml"/>
    <e2Detector id="e2Detector_555272426_0_26" lane="555272426_0" pos="149.00" length="10.00" freq="900.00" file="e2Detector_555272426_0_26.xml"/>
    <e2Detector id="e2Detector_600051342_0_38" lane="600051342_0" pos="88.53" length="10.00" freq="900.00" file="e2Detector_600051342_0_38.xml"/>
    <e2Detector id="e2Detector_600051342_1_39" lane="600051342_1" pos="88.73" length="10.00" freq="900.00" file="e2Detector_600051342_1_39.xml"/>
    <e2Detector id="e2Detector_600517701#1_0_67" lane="600517701#1_0" pos="94.78" length="10.00" freq="900.00" file="e2Detector_600517701#1_0_67.xml"/>
    <e2Detector id="e2Detector_600708019#1_0_12" lane="600708019#1_0" pos="58.63" length="10.00" freq="900.00" file="e2Detector_600708019#1_0_12.xml"/>
    <e2Detector id="e2Detector_600708019#2_0_8" lane="600708019#2_0" pos="197.48" length="10.00" freq="900.00" file="e2Detector_600708019#2_0_8.xml"/>
    <e2Detector id="e2Detector_600708019#4_0_4" lane="600708019#4_0" pos="80.62" length="10.00" freq="900.00" file="e2Detector_600708019#4_0_4.xml"/>
    <e2Detector id="e2Detector_600711510#1_0_27" lane="600711510#1_0" pos="64.94" length="10.00" freq="900.00" file="e2Detector_600711510#1_0_27.xml"/>
    <e2Detector id="e2Detector_600712598_0_1" lane="600712598_0" pos="47.11" length="10.00" freq="900.00" file="e2Detector_600712598_0_1.xml"/>
    <e2Detector id="e2Detector_601618367#1_0_97" lane="601618367#1_0" pos="50.89" length="10.00" freq="900.00" file="e2Detector_601618367#1_0_97.xml"/>
    <e2Detector id="e2Detector_601618367#1_1_98" lane="601618367#1_1" pos="52.44" length="10.00" freq="900.00" file="e2Detector_601618367#1_1_98.xml"/>
    <e2Detector id="e2Detector_601618368#2_0_17" lane="601618368#2_0" pos="93.56" length="10.00" freq="900.00" file="e2Detector_601618368#2_0_17.xml"/>
    <e2Detector id="e2Detector_601999668#1_0_5" lane="601999668#1_0" pos="180.80" length="10.00" freq="900.00" file="e2Detector_601999668#1_0_5.xml"/>
    <e2Detector id="e2Detector_601999668#2_0_10" lane="601999668#2_0" pos="270.49" length="10.00" freq="900.00" file="e2Detector_601999668#2_0_10.xml"/>
    <e2Detector id="e2Detector_601999668#3_0_13" lane="601999668#3_0" pos="194.10" length="10.00" freq="900.00" file="e2Detector_601999668#3_0_13.xml"/>
    <e2Detector id="e2Detector_601999668#4_0_18" lane="601999668#4_0" pos="189.28" length="10.00" freq="900.00" file="e2Detector_601999668#4_0_18.xml"/>
    <e2Detector id="e2Detector_609019390#1_0_37" lane="609019390#1_0" pos="9.21" length="10.00" freq="900.00" file="e2Detector_609019390#1_0_37.xml"/>
    <e2Detector id="e2Detector_609019390#1_1_36" lane="609019390#1_1" pos="8.17" length="10.00" freq="900.00" file="e2Detector_609019390#1_1_36.xml"/>
    <e2Detector id="e2Detector_625498786#0_0_68" lane="625498786#0_0" pos="15.50" length="10.00" freq="900.00" file="e2Detector_625498786#0_0_68.xml"/>
    <e2Detector id="e2Detector_625498786#0_1_69" lane="625498786#0_1" pos="16.15" length="10.00" freq="900.00" file="e2Detector_625498786#0_1_69.xml"/>
    <e2Detector id="e2Detector_625523015_0_96" lane="625523015_0" pos="37.50" length="10.00" freq="900.00" file="e2Detector_625523015_0_96.xml"/>
    <e2Detector id="e2Detector_625523015_1_95" lane="625523015_1" pos="37.86" length="10.00" freq="900.00" file="e2Detector_625523015_1_95.xml"/>
    <e2Detector id="e2Detector_625523016#1_0_77" lane="625523016#1_0" pos="41.52" length="10.00" freq="900.00" file="e2Detector_625523016#1_0_77.xml"/>
    <e2Detector id="e2Detector_625523016#1_1_78" lane="625523016#1_1" pos="42.05" length="10.00" freq="900.00" file="e2Detector_625523016#1_1_78.xml"/>
    <e2Detector id="e2Detector_625523016#3_0_81" lane="625523016#3_0" pos="44.81" length="10.00" freq="900.00" file="e2Detector_625523016#3_0_81.xml"/>
    <e2Detector id="e2Detector_625523016#3_1_82" lane="625523016#3_1" pos="44.58" length="10.00" freq="900.00" file="e2Detector_625523016#3_1_82.xml"/>
    <e2Detector id="e2Detector_625523016#4_0_88" lane="625523016#4_0" pos="120.27" length="10.00" freq="900.00" file="e2Detector_625523016#4_0_88.xml"/>
    <e2Detector id="e2Detector_625523016#4_1_89" lane="625523016#4_1" pos="121.24" length="10.00" freq="900.00" file="e2Detector_625523016#4_1_89.xml"/>
    <e2Detector id="e2Detector_625523018_0_73" lane="625523018_0" pos="124.63" length="10.00" freq="900.00" file="e2Detector_625523018_0_73.xml"/>
    <e2Detector id="e2Detector_625523018_1_74" lane="625523018_1" pos="124.72" length="10.00" freq="900.00" file="e2Detector_625523018_1_74.xml"/>
    <e2Detector id="e2Detector_625523019#1_0_64" lane="625523019#1_0" pos="46.31" length="10.00" freq="900.00" file="e2Detector_625523019#1_0_64.xml"/>
    <e2Detector id="e2Detector_625523019#1_1_63" lane="625523019#1_1" pos="46.53" length="10.00" freq="900.00" file="e2Detector_625523019#1_1_63.xml"/>
    <e2Detector id="e2Detector_625523022#2_0_68" lane="625523022#2_0" pos="47.72" length="10.00" freq="900.00" file="e2Detector_625523022#2_0_68.xml"/>
    <e2Detector id="e2Detector_625523022#2_1_69" lane="625523022#2_1" pos="47.94" length="10.00" freq="900.00" file="e2Detector_625523022#2_1_69.xml"/>
    <e2Detector id="e2Detector_637446246#2_0_40" lane="637446246#2_0" pos="2.07" length="10.00" freq="900.00" file="e2Detector_637446246#2_0_40.xml"/>
    <e2Detector id="e2Detector_651269277#1_0_19" lane="651269277#1_0" pos="166.98" length="10.00" freq="900.00" file="e2Detector_651269277#1_0_19.xml"/>
    <e2Detector id="e2Detector_651269277#2_0_24" lane="651269277#2_0" pos="171.59" length="10.00" freq="900.00" file="e2Detector_651269277#2_0_24.xml"/>
    <e2Detector id="e2Detector_651269277#3_0_28" lane="651269277#3_0" pos="202.66" length="10.00" freq="900.00" file="e2Detector_651269277#3_0_28.xml"/>
    <e2Detector id="e2Detector_651269312#3_0_72" lane="651269312#3_0" pos="15.20" length="10.00" freq="900.00" file="e2Detector_651269312#3_0_72.xml"/>
    <e2Detector id="e2Detector_705608737#1_0_55" lane="705608737#1_0" pos="76.44" length="10.00" freq="900.00" file="e2Detector_705608737#1_0_55.xml"/>
    <e2Detector id="e2Detector_705613696#1_0_66" lane="705613696#1_0" pos="85.45" length="10.00" freq="900.00" file="e2Detector_705613696#1_0_66.xml"/>
    <e2Detector id="e2Detector_705613696#1_1_65" lane="705613696#1_1" pos="84.65" length="10.00" freq="900.00" file="e2Detector_705613696#1_1_65.xml"/>
    <e2Detector id="e2Detector_734006551#5_0_48" lane="734006551#5_0" pos="6.59" length="10.00" freq="900.00" file="e2Detector_734006551#5_0_48.xml"/>
    <e2Detector id="e2Detector_734006551#5_1_49" lane="734006551#5_1" pos="8.19" length="10.00" freq="900.00" file="e2Detector_734006551#5_1_49.xml"/>
    <e2Detector id="e2Detector_791907638#0_0_15" lane="791907638#0_0" pos="190.68" length="10.00" freq="900.00" file="e2Detector_791907638#0_0_15.xml"/>
    <e2Detector id="e2Detector_82877385_0_56" lane="82877385_0" pos="415.86" length="10.00" freq="900.00" file="e2Detector_82877385_0_56.xml"/>
    <e2Detector id="e2Detector_840025188#5_0_46" lane="840025188#5_0" pos="88.85" length="10.00" freq="900.00" file="e2Detector_840025188#5_0_46.xml"/>
    <e2Detector id="e2Detector_845025387#0_0_43" lane="845025387#0_0" pos="121.15" length="10.00" freq="900.00" file="e2Detector_845025387#0_0_43.xml"/>
    <e2Detector id="e2Detector_848246772#0_0_84" lane="848246772#0_0" pos="119.23" length="10.00" freq="900.00" file="e2Detector_848246772#0_0_84.xml"/>
    <e2Detector id="e2Detector_848246772#0_1_83" lane="848246772#0_1" pos="118.39" length="10.00" freq="900.00" file="e2Detector_848246772#0_1_83.xml"/>
    <e2Detector id="e2Detector_848246772#4_0_80" lane="848246772#4_0" pos="5.02" length="10.00" freq="900.00" file="e2Detector_848246772#4_0_80.xml"/>
    <e2Detector id="e2Detector_848246772#4_1_79" lane="848246772#4_1" pos="4.19" length="10.00" freq="900.00" file="e2Detector_848246772#4_1_79.xml"/>
    <e2Detector id="e2Detector_848246772#6_0_76" lane="848246772#6_0" pos="66.14" length="10.00" freq="900.00" file="e2Detector_848246772#6_0_76.xml"/>
    <e2Detector id="e2Detector_848246772#6_1_75" lane="848246772#6_1" pos="65.85" length="10.00" freq="900.00" file="e2Detector_848246772#6_1_75.xml"/>
    <e2Detector id="e2Detector_gneE1_0_0" lane="gneE1_0" pos="217.34" length="10.00" freq="900.00" file="e2Detector_gneE1_0_0.xml"/>
    <e2Detector id="e2Detector_gneE3_0_3" lane="gneE3_0" pos="243.74" length="10.00" freq="900.00" file="e2Detector_gneE3_0_3.xml"/>
    <e2Detector id="e2Detector_gneE6_0_71" lane="gneE6_0" pos="38.95" length="10.00" freq="900.00" file="e2Detector_gneE6_0_71.xml"/>
    <e2Detector id="e2Detector_gneE6_1_70" lane="gneE6_1" pos="37.81" length="10.00" freq="900.00" file="e2Detector_gneE6_1_70.xml"/>
</additional>
