<?xml version="1.0" encoding="UTF-8"?>

<!-- generated on 09/24/20 15:55:12 by Eclipse SUMO duarouter Version 1.6.0
<configuration xmlns:xsi="http://www.w3.org/2001/XMLSchema-instance" xsi:noNamespaceSchemaLocation="http://sumo.dlr.de/xsd/duarouterConfiguration.xsd">

    <input>
        <net-file value="osm.net.xml"/>
        <route-files value="osm.passenger.trips.xml"/>
    </input>

    <output>
        <output-file value="osm.passenger.trips.xml.tmp"/>
        <write-trips value="true"/>
    </output>

    <time>
        <begin value="0"/>
        <end value="1800.0"/>
    </time>

    <report>
        <no-warnings value="true"/>
        <ignore-errors value="true"/>
        <no-step-log value="true"/>
    </report>

</configuration>
-->

<routes xmlns:xsi="http://www.w3.org/2001/XMLSchema-instance" xsi:noNamespaceSchemaLocation="http://sumo.dlr.de/xsd/routes_file.xsd">
    <vType id="veh_passenger" vClass="passenger"/>
    <trip id="veh2" type="veh_passenger" depart="4.00" departLane="best" from="649705401#11" to="601618368#0"/>
    <trip id="veh3" type="veh_passenger" depart="6.00" departLane="best" from="692134608" to="-226002365#0"/>
    <trip id="veh5" type="veh_passenger" depart="10.00" departLane="best" from="-14310103#0" to="-88794279#3"/>
    <trip id="veh8" type="veh_passenger" depart="16.00" departLane="best" from="691330803" to="-14298867#0"/>
    <trip id="veh11" type="veh_passenger" depart="22.00" departLane="best" from="828220468" to="152183108"/>
    <trip id="veh12" type="veh_passenger" depart="24.00" departLane="best" from="-226002370#0" to="-226002375#2"/>
    <trip id="veh13" type="veh_passenger" depart="26.00" departLane="best" from="691359229" to="592339825#0"/>
    <trip id="veh16" type="veh_passenger" depart="32.00" departLane="best" from="226002322#5" to="423693001#1"/>
    <trip id="veh19" type="veh_passenger" depart="38.00" departLane="best" from="609019390#0" to="-14318522#1"/>
    <trip id="veh20" type="veh_passenger" depart="40.00" departLane="best" departSpeed="max" from="130359176" to="14320536#2"/>
    <trip id="veh21" type="veh_passenger" depart="42.00" departLane="best" from="-226002297#3" to="14301362#2"/>
    <trip id="veh22" type="veh_passenger" depart="44.00" departLane="best" from="-226002383#1" to="14318520#0"/>
    <trip id="veh24" type="veh_passenger" depart="48.00" departLane="best" from="226002314#0" to="130355957"/>
    <trip id="veh25" type="veh_passenger" depart="50.00" departLane="best" from="14305591#4" to="776580024"/>
    <trip id="veh26" type="veh_passenger" depart="52.00" departLane="best" from="594470117#1" to="592339825#2"/>
    <trip id="veh27" type="veh_passenger" depart="54.00" departLane="best" from="-651364957#1" to="649705403#2"/>
    <trip id="veh28" type="veh_passenger" depart="56.00" departLane="best" from="-649705403#2" to="226002322#8"/>
    <trip id="veh29" type="veh_passenger" depart="58.00" departLane="best" from="88794279#2" to="600060710#1"/>
    <trip id="veh32" type="veh_passenger" depart="64.00" departLane="best" from="14320655#1" to="14315165#2"/>
    <trip id="veh33" type="veh_passenger" depart="66.00" departLane="best" from="-88794279#1" to="776580036#0"/>
    <trip id="veh35" type="veh_passenger" depart="70.00" departLane="best" from="600051347#4" to="226002363#1"/>
    <trip id="veh36" type="veh_passenger" depart="72.00" departLane="best" from="705608737#0" to="279670279#2-AddedOnRampEdge"/>
    <trip id="veh37" type="veh_passenger" depart="74.00" departLane="best" from="14305591#0" to="14305591#6"/>
    <trip id="veh38" type="veh_passenger" depart="76.00" departLane="best" from="396445684#0" to="14314230#3"/>
    <trip id="veh39" type="veh_passenger" depart="78.00" departLane="best" from="423693001#1" to="700820388"/>
    <trip id="veh40" type="veh_passenger" depart="80.00" departLane="best" from="226002365#0" to="130776870#2"/>
    <trip id="veh41" type="veh_passenger" depart="82.00" departLane="best" from="gneE3" to="359235005#1"/>
    <trip id="veh42" type="veh_passenger" depart="84.00" departLane="best" from="-226002366#1" to="-14319140#1"/>
    <trip id="veh43" type="veh_passenger" depart="86.00" departLane="best" from="-256406628#3" to="600051342"/>
    <trip id="veh44" type="veh_passenger" depart="88.00" departLane="best" from="674621858#1" to="226002415#2"/>
    <trip id="veh45" type="veh_passenger" depart="90.00" departLane="best" from="-14322061#3" to="226002336"/>
    <trip id="veh46" type="veh_passenger" depart="92.00" departLane="best" from="gneE0" to="396445684#0"/>
    <trip id="veh47" type="veh_passenger" depart="94.00" departLane="best" from="843791992#0" to="691372279-AddedOnRampEdge"/>
    <trip id="veh48" type="veh_passenger" depart="96.00" departLane="best" from="-14301362#4" to="649705401#14"/>
    <trip id="veh49" type="veh_passenger" depart="98.00" departLane="best" from="600517701#1" to="423690870#1"/>
    <trip id="veh50" type="veh_passenger" depart="100.00" departLane="best" from="14305591#4" to="600064691#1"/>
    <trip id="veh51" type="veh_passenger" depart="102.00" departLane="best" from="-256459853#1" to="256459853#9"/>
    <trip id="veh52" type="veh_passenger" depart="104.00" departLane="best" from="269922625#1" to="822081470#1"/>
    <trip id="veh53" type="veh_passenger" depart="106.00" departLane="best" departSpeed="max" from="691383611" to="14314595#1"/>
    <trip id="veh54" type="veh_passenger" depart="108.00" departLane="best" from="35815812#1" to="-734006551#4"/>
    <trip id="veh55" type="veh_passenger" depart="110.00" departLane="best" departSpeed="max" from="705608733#0" to="691378746-AddedOffRampEdge"/>
    <trip id="veh56" type="veh_passenger" depart="112.00" departLane="best" from="14316888" to="600060710#1"/>
    <trip id="veh57" type="veh_passenger" depart="114.00" departLane="best" from="491478520#2" to="-625523015"/>
    <trip id="veh58" type="veh_passenger" depart="116.00" departLane="best" from="651269290" to="423690870#5"/>
    <trip id="veh59" type="veh_passenger" depart="118.00" departLane="best" from="651364931" to="396445684#1"/>
    <trip id="veh60" type="veh_passenger" depart="120.00" departLane="best" from="-130776853#0" to="145661136#1"/>
    <trip id="veh61" type="veh_passenger" depart="122.00" departLane="best" departSpeed="max" from="691383611" to="691339028"/>
    <trip id="veh62" type="veh_passenger" depart="124.00" departLane="best" from="14320536#2" to="-14321966#1"/>
    <trip id="veh63" type="veh_passenger" depart="126.00" departLane="best" departSpeed="max" from="691383611" to="814781109#1"/>
    <trip id="veh65" type="veh_passenger" depart="130.00" departLane="best" from="-14324847#1" to="651364906-AddedOnRampEdge"/>
    <trip id="veh66" type="veh_passenger" depart="132.00" departLane="best" from="651269310" to="-446966544#2"/>
    <trip id="veh67" type="veh_passenger" depart="134.00" departLane="best" departSpeed="max" from="310285312" to="423692999#2"/>
    <trip id="veh68" type="veh_passenger" depart="136.00" departLane="best" from="14305591#0" to="691379883"/>
    <trip id="veh69" type="veh_passenger" depart="138.00" departLane="best" from="226002408#5" to="130776851#1"/>
    <trip id="veh71" type="veh_passenger" depart="142.00" departLane="best" from="-843791990#0" to="14322061#3"/>
    <trip id="veh72" type="veh_passenger" depart="144.00" departLane="best" from="97795813-AddedOnRampEdge" to="600076000#0"/>
    <trip id="veh73" type="veh_passenger" depart="146.00" departLane="best" from="25794060#6" to="39514122"/>
    <trip id="veh75" type="veh_passenger" depart="150.00" departLane="best" from="14324847#2" to="523572056#0"/>
    <trip id="veh77" type="veh_passenger" depart="154.00" departLane="best" from="-14324847#4" to="600051347#4"/>
    <trip id="veh80" type="veh_passenger" depart="160.00" departLane="best" from="130776870#2" to="600712596#2"/>
    <trip id="veh82" type="veh_passenger" depart="164.00" departLane="best" from="776580021" to="491477888#2"/>
    <trip id="veh83" type="veh_passenger" depart="166.00" departLane="best" departSpeed="max" from="310285312" to="651364931"/>
    <trip id="veh85" type="veh_passenger" depart="170.00" departLane="best" from="-226002375#0" to="256459853#3"/>
    <trip id="veh86" type="veh_passenger" depart="172.00" departLane="best" from="226002408#5" to="339697398#2"/>
    <trip id="veh87" type="veh_passenger" depart="174.00" departLane="best" from="625523027" to="601617913"/>
    <trip id="veh88" type="veh_passenger" depart="176.00" departLane="best" from="848246773" to="-226002383#0"/>
    <trip id="veh89" type="veh_passenger" depart="178.00" departLane="best" from="226002366#2" to="152183108"/>
    <trip id="veh91" type="veh_passenger" depart="182.00" departLane="best" departSpeed="max" from="-776081887" to="269922642#0"/>
    <trip id="veh92" type="veh_passenger" depart="184.00" departLane="best" from="226002408#4" to="14318520#3"/>
    <trip id="veh93" type="veh_passenger" depart="186.00" departLane="best" from="14294590" to="734006551#5"/>
    <trip id="veh95" type="veh_passenger" depart="190.00" departLane="best" from="39514122" to="-14320655#1"/>
    <trip id="veh97" type="veh_passenger" depart="194.00" departLane="best" from="843791990#2" to="734006551#7"/>
    <trip id="veh98" type="veh_passenger" depart="196.00" departLane="best" from="691372278" to="-651364958#6"/>
    <trip id="veh99" type="veh_passenger" depart="198.00" departLane="best" from="35815769" to="130776853#2"/>
    <trip id="veh100" type="veh_passenger" depart="200.00" departLane="best" from="226002366#0" to="-14321966#2"/>
    <trip id="veh101" type="veh_passenger" depart="202.00" departLane="best" from="226002322#5" to="848246774#1"/>
    <trip id="veh102" type="veh_passenger" depart="204.00" departLane="best" from="14305591#0" to="651364931"/>
    <trip id="veh105" type="veh_passenger" depart="210.00" departLane="best" departSpeed="max" from="-600712596#2" to="14320536#7"/>
    <trip id="veh106" type="veh_passenger" depart="212.00" departLane="best" from="843791990#2" to="491478520#7"/>
    <trip id="veh108" type="veh_passenger" depart="216.00" departLane="best" from="-14320770#0" to="523572054#2"/>
    <trip id="veh111" type="veh_passenger" depart="222.00" departLane="best" from="-226002297#4" to="-814781109#1"/>
    <trip id="veh112" type="veh_passenger" depart="224.00" departLane="best" from="130776866#0" to="-423690870#3"/>
    <trip id="veh113" type="veh_passenger" depart="226.00" departLane="best" from="691546958-AddedOnRampEdge" to="14305591#5"/>
    <trip id="veh114" type="veh_passenger" depart="228.00" departLane="best" from="446966547#1" to="594470106#0"/>
    <trip id="veh115" type="veh_passenger" depart="230.00" departLane="best" from="226002408#2" to="523572054#0"/>
    <trip id="veh116" type="veh_passenger" depart="232.00" departLane="best" from="359235003#0-AddedOffRampEdge" to="776580023#1"/>
    <trip id="veh117" type="veh_passenger" depart="234.00" departLane="best" from="-843791992#0" to="649514784"/>
    <trip id="veh119" type="veh_passenger" depart="238.00" departLane="best" from="600072508" to="14320655#4"/>
    <trip id="veh124" type="veh_passenger" depart="248.00" departLane="best" from="14305591#0" to="776580023#0-AddedOnRampEdge"/>
    <trip id="veh125" type="veh_passenger" depart="250.00" departLane="best" departSpeed="max" from="691383611" to="691477442"/>
    <trip id="veh126" type="veh_passenger" depart="252.00" departLane="best" from="226002312" to="-650732310#0"/>
    <trip id="veh127" type="veh_passenger" depart="254.00" departLane="best" from="691359209-AddedOnRampEdge" to="625523016#4"/>
    <trip id="veh128" type="veh_passenger" depart="256.00" departLane="best" from="491478520#5" to="848246775"/>
    <trip id="veh129" type="veh_passenger" depart="258.00" departLane="best" from="600051347#2" to="-14298867#2"/>
    <trip id="veh130" type="veh_passenger" depart="260.00" departLane="best" departSpeed="max" from="691332401" to="14320655#3"/>
    <trip id="veh131" type="veh_passenger" depart="262.00" departLane="best" from="600060710#0" to="776580026#2-AddedOnRampEdge"/>
    <trip id="veh132" type="veh_passenger" depart="264.00" departLane="best" from="-523572054#2" to="-329178216#0"/>
    <trip id="veh133" type="veh_passenger" depart="266.00" departLane="best" departSpeed="max" from="-226002415#3" to="423696022"/>
    <trip id="veh134" type="veh_passenger" depart="268.00" departLane="best" from="14307499#1" to="592339825#0"/>
    <trip id="veh135" type="veh_passenger" depart="270.00" departLane="best" from="625523016#1" to="123222364"/>
    <trip id="veh137" type="veh_passenger" depart="274.00" departLane="best" departSpeed="max" from="35815770" to="700821302-AddedOnRampEdge"/>
    <trip id="veh138" type="veh_passenger" depart="276.00" departLane="best" departSpeed="max" from="691359217" to="-226002370#2"/>
    <trip id="veh139" type="veh_passenger" depart="278.00" departLane="best" from="226002408#5" to="14316888"/>
    <trip id="veh140" type="veh_passenger" depart="280.00" departLane="best" from="-130776860#1" to="651364907"/>
    <trip id="veh142" type="veh_passenger" depart="284.00" departLane="best" from="256406637#1" to="-14300218#1"/>
    <trip id="veh143" type="veh_passenger" depart="286.00" departLane="best" from="-194827164" to="691547899"/>
    <trip id="veh145" type="veh_passenger" depart="290.00" departLane="best" from="691359209-AddedOnRampEdge" to="523567860"/>
    <trip id="veh146" type="veh_passenger" depart="292.00" departLane="best" from="-600159272#0" to="-446966544#1"/>
    <trip id="veh147" type="veh_passenger" depart="294.00" departLane="best" from="14320536#3" to="700820388-AddedOffRampEdge"/>
    <trip id="veh148" type="veh_passenger" depart="296.00" departLane="best" from="674621863" to="691372279-AddedOnRampEdge"/>
    <trip id="veh149" type="veh_passenger" depart="298.00" departLane="best" from="700820388" to="130776850#0"/>
    <trip id="veh150" type="veh_passenger" depart="300.00" departLane="best" from="14294590" to="-226002415#2"/>
    <trip id="veh152" type="veh_passenger" depart="304.00" departLane="best" from="226002373#1" to="594470113#0"/>
    <trip id="veh153" type="veh_passenger" depart="306.00" departLane="best" departSpeed="max" from="-600712596#2" to="776081887"/>
    <trip id="veh156" type="veh_passenger" depart="312.00" departLane="best" from="-14307499#0" to="650732310#2"/>
    <trip id="veh157" type="veh_passenger" depart="314.00" departLane="best" from="14322332#0" to="776081891"/>
    <trip id="veh158" type="veh_passenger" depart="316.00" departLane="best" departSpeed="max" from="691322320#0" to="691373503"/>
    <trip id="veh159" type="veh_passenger" depart="318.00" departLane="best" from="691330806" to="14315165#0"/>
    <trip id="veh160" type="veh_passenger" depart="320.00" departLane="best" from="651364958#5" to="-256459853#3"/>
    <trip id="veh161" type="veh_passenger" depart="322.00" departLane="best" from="691383128" to="691372279-AddedOffRampEdge"/>
    <trip id="veh163" type="veh_passenger" depart="326.00" departLane="best" from="269922642#3-AddedOffRampEdge" to="14321263#0"/>
    <trip id="veh164" type="veh_passenger" depart="328.00" departLane="best" from="674621861" to="14294590"/>
    <trip id="veh165" type="veh_passenger" depart="330.00" departLane="best" from="-14307333#3" to="-845014147"/>
    <trip id="veh166" type="veh_passenger" depart="332.00" departLane="best" from="14322061#2" to="691373503"/>
    <trip id="veh167" type="veh_passenger" depart="334.00" departLane="best" from="840026355#2" to="14318522#1"/>
    <trip id="veh169" type="veh_passenger" depart="338.00" departLane="best" from="848246772#4" to="423690870#0"/>
    <trip id="veh170" type="veh_passenger" depart="340.00" departLane="best" from="776580023#1" to="-329178216#0"/>
    <trip id="veh171" type="veh_passenger" depart="342.00" departLane="best" from="843791991" to="-734006551#4"/>
    <trip id="veh172" type="veh_passenger" depart="344.00" departLane="best" from="840025188#3" to="14315164#1"/>
    <trip id="veh173" type="veh_passenger" depart="346.00" departLane="best" from="-226002418#6" to="256459853#8"/>
    <trip id="veh174" type="veh_passenger" depart="348.00" departLane="best" from="625523023" to="14322061#8"/>
    <trip id="veh175" type="veh_passenger" depart="350.00" departLane="best" from="491477888#2" to="38124074"/>
    <trip id="veh176" type="veh_passenger" depart="352.00" departLane="best" from="226002336" to="491478520#5"/>
    <trip id="veh177" type="veh_passenger" depart="354.00" departLane="best" from="14301362#2" to="625523022#0"/>
    <trip id="veh178" type="veh_passenger" depart="356.00" departLane="best" from="-130776853#2" to="734006551#7"/>
    <trip id="veh180" type="veh_passenger" depart="360.00" departLane="best" from="649705401#8" to="600712596#2"/>
    <trip id="veh182" type="veh_passenger" depart="364.00" departLane="best" from="600060710#1" to="152183108"/>
    <trip id="veh183" type="veh_passenger" depart="366.00" departLane="best" from="14320536#7" to="691359225"/>
    <trip id="veh184" type="veh_passenger" depart="368.00" departLane="best" from="625523016#3" to="14320655#5"/>
    <trip id="veh185" type="veh_passenger" depart="370.00" departLane="best" from="14320536#3" to="226002383#1"/>
    <trip id="veh186" type="veh_passenger" depart="372.00" departLane="best" from="226002366#2" to="14320536#7"/>
    <trip id="veh187" type="veh_passenger" depart="374.00" departLane="best" from="-423692923#1" to="226002408#5"/>
    <trip id="veh188" type="veh_passenger" depart="376.00" departLane="best" from="776580024" to="601618368#0-AddedOffRampEdge"/>
    <trip id="veh189" type="veh_passenger" depart="378.00" departLane="best" from="700820388-AddedOffRampEdge" to="592339825#2"/>
    <trip id="veh190" type="veh_passenger" depart="380.00" departLane="best" from="14318522#2" to="423692998#1"/>
    <trip id="veh191" type="veh_passenger" depart="382.00" departLane="best" from="-130776853#0" to="14320536#0"/>
    <trip id="veh192" type="veh_passenger" depart="384.00" departLane="best" from="600051347#3" to="329178216#1"/>
    <trip id="veh194" type="veh_passenger" depart="388.00" departLane="best" departSpeed="max" from="310285312" to="700820388-AddedOffRampEdge"/>
    <trip id="veh195" type="veh_passenger" depart="390.00" departLane="best" from="674621863" to="-705608737#0"/>
    <trip id="veh196" type="veh_passenger" depart="392.00" departLane="best" from="-226002314#5" to="38124074-AddedOffRampEdge"/>
    <trip id="veh197" type="veh_passenger" depart="394.00" departLane="best" from="560845820" to="152183108"/>
    <trip id="veh198" type="veh_passenger" depart="396.00" departLane="best" from="691332409#0-AddedOffRampEdge" to="651269312#3"/>
    <trip id="veh200" type="veh_passenger" depart="400.00" departLane="best" departSpeed="max" from="-814781109#6" to="-14310103#1"/>
    <trip id="veh201" type="veh_passenger" depart="402.00" departLane="best" departSpeed="max" from="14290183" to="35815863"/>
    <trip id="veh202" type="veh_passenger" depart="404.00" departLane="best" from="691372278" to="-194827164"/>
    <trip id="veh203" type="veh_passenger" depart="406.00" departLane="best" from="226002384" to="600051347#3"/>
    <trip id="veh204" type="veh_passenger" depart="408.00" departLane="best" from="-814781109#0" to="625523014"/>
    <trip id="veh205" type="veh_passenger" depart="410.00" departLane="best" departSpeed="max" from="35815770" to="14305591#2"/>
    <trip id="veh206" type="veh_passenger" depart="412.00" departLane="best" from="600051347#4" to="-14295418#0"/>
    <trip id="veh207" type="veh_passenger" depart="414.00" departLane="best" from="650444346" to="651364906-AddedOnRampEdge"/>
    <trip id="veh208" type="veh_passenger" depart="416.00" departLane="best" from="-674621862" to="82877265-AddedOnRampEdge"/>
    <trip id="veh209" type="veh_passenger" depart="418.00" departLane="best" departSpeed="max" from="359235003#0" to="-14320655#1"/>
    <trip id="veh210" type="veh_passenger" depart="420.00" departLane="best" from="14294590" to="691359225"/>
    <trip id="veh211" type="veh_passenger" depart="422.00" departLane="best" from="269922633#1" to="674621861"/>
    <trip id="veh212" type="veh_passenger" depart="424.00" departLane="best" from="600064691#4" to="88794279#0"/>
    <trip id="veh213" type="veh_passenger" depart="426.00" departLane="best" from="446966548#1" to="814781109#6"/>
    <trip id="veh217" type="veh_passenger" depart="434.00" departLane="best" from="700806784" to="651269277#1"/>
    <trip id="veh218" type="veh_passenger" depart="436.00" departLane="best" departSpeed="max" from="310285312" to="14312503#1"/>
    <trip id="veh220" type="veh_passenger" depart="440.00" departLane="best" from="651269310" to="39514254"/>
    <trip id="veh221" type="veh_passenger" depart="442.00" departLane="best" from="524550931#3" to="14316888"/>
    <trip id="veh222" type="veh_passenger" depart="444.00" departLane="best" from="-226002297#0" to="14319400#1"/>
    <trip id="veh223" type="veh_passenger" depart="446.00" departLane="best" from="14307499#0" to="14324847#1"/>
    <trip id="veh225" type="veh_passenger" depart="450.00" departLane="best" from="130776853#0" to="625498788#0"/>
    <trip id="veh226" type="veh_passenger" depart="452.00" departLane="best" from="609019390#1" to="-14322061#9"/>
    <trip id="veh227" type="veh_passenger" depart="454.00" departLane="best" from="226002375#0" to="423692234"/>
    <trip id="veh228" type="veh_passenger" depart="456.00" departLane="best" from="226002408#0" to="130355943"/>
    <trip id="veh229" type="veh_passenger" depart="458.00" departLane="best" from="226002408#3" to="700821302-AddedOnRampEdge"/>
    <trip id="veh230" type="veh_passenger" depart="460.00" departLane="best" from="423693001#0" to="625498788#1"/>
    <trip id="veh231" type="veh_passenger" depart="462.00" departLane="best" from="691372279-AddedOnRampEdge" to="651364906-AddedOnRampEdge"/>
    <trip id="veh232" type="veh_passenger" depart="464.00" departLane="best" from="226002322#6" to="-14295418#1"/>
    <trip id="veh233" type="veh_passenger" depart="466.00" departLane="best" from="691372279-AddedOffRampEdge" to="822081470#1"/>
    <trip id="veh234" type="veh_passenger" depart="468.00" departLane="best" from="226002408#2" to="651269295"/>
    <trip id="veh237" type="veh_passenger" depart="474.00" departLane="best" from="25794060#2" to="-14313657#0"/>
    <trip id="veh238" type="veh_passenger" depart="476.00" departLane="best" from="14324403#2" to="601618368#2"/>
    <trip id="veh239" type="veh_passenger" depart="478.00" departLane="best" from="226002370#1" to="-651364958#5"/>
    <trip id="veh240" type="veh_passenger" depart="480.00" departLane="best" from="279670279#2-AddedOnRampEdge" to="-446966544#1"/>
    <trip id="veh241" type="veh_passenger" depart="482.00" departLane="best" from="523572062#0" to="-14312265#3"/>
    <trip id="veh242" type="veh_passenger" depart="484.00" departLane="best" from="226002348#6" to="446966559"/>
    <trip id="veh243" type="veh_passenger" depart="486.00" departLane="best" from="-14310103#1" to="600064691#4"/>
    <trip id="veh244" type="veh_passenger" depart="488.00" departLane="best" departSpeed="max" from="-523572054#3" to="281403363"/>
    <trip id="veh245" type="veh_passenger" depart="490.00" departLane="best" departSpeed="max" from="-14319400#1" to="226002322#8"/>
    <trip id="veh246" type="veh_passenger" depart="492.00" departLane="best" from="-88794279#3" to="151998674"/>
    <trip id="veh247" type="veh_passenger" depart="494.00" departLane="best" from="651269277#2" to="226002322#8"/>
    <trip id="veh248" type="veh_passenger" depart="496.00" departLane="best" from="650732310#0" to="691339028"/>
    <trip id="veh249" type="veh_passenger" depart="498.00" departLane="best" from="14298867#1" to="-226002314#4"/>
    <trip id="veh250" type="veh_passenger" depart="500.00" departLane="best" departSpeed="max" from="-14305591#7" to="423690870#5"/>
    <trip id="veh251" type="veh_passenger" depart="502.00" departLane="best" from="gneE6" to="198217580#0"/>
    <trip id="veh252" type="veh_passenger" depart="504.00" departLane="best" departSpeed="max" from="599730736" to="651364907-AddedOnRampEdge"/>
    <trip id="veh253" type="veh_passenger" depart="506.00" departLane="best" from="600051342" to="651364902"/>
    <trip id="veh254" type="veh_passenger" depart="508.00" departLane="best" from="791907638#0" to="-88794279#3"/>
    <trip id="veh255" type="veh_passenger" depart="510.00" departLane="best" departSpeed="max" from="-14305591#7" to="-625523014"/>
    <trip id="veh256" type="veh_passenger" depart="512.00" departLane="best" from="-423692807" to="600712596#2"/>
    <trip id="veh257" type="veh_passenger" depart="514.00" departLane="best" from="396445684#1" to="130776870#0"/>
    <trip id="veh258" type="veh_passenger" depart="516.00" departLane="best" from="601618368#0-AddedOffRampEdge" to="651364906-AddedOnRampEdge"/>
    <trip id="veh259" type="veh_passenger" depart="518.00" departLane="best" from="-651269270" to="592339825#1"/>
    <trip id="veh260" type="veh_passenger" depart="520.00" departLane="best" from="650444344#0" to="-329178216#0"/>
    <trip id="veh261" type="veh_passenger" depart="522.00" departLane="best" from="691332409#1" to="840026354#1"/>
    <trip id="veh262" type="veh_passenger" depart="524.00" departLane="best" from="-226002418#6" to="-14312265#1"/>
    <trip id="veh263" type="veh_passenger" depart="526.00" departLane="best" from="14320536#5" to="601618368#0-AddedOffRampEdge"/>
    <trip id="veh264" type="veh_passenger" depart="528.00" departLane="best" from="625523015" to="-226002297#0"/>
    <trip id="veh265" type="veh_passenger" depart="530.00" departLane="best" from="600712593#5" to="600051342"/>
    <trip id="veh266" type="veh_passenger" depart="532.00" departLane="best" from="-226002383#4" to="651364907"/>
    <trip id="veh268" type="veh_passenger" depart="536.00" departLane="best" from="-423690870#3" to="848246773"/>
    <trip id="veh270" type="veh_passenger" depart="540.00" departLane="best" from="256459850" to="226002322#1"/>
    <trip id="veh272" type="veh_passenger" depart="544.00" departLane="best" from="691372278" to="691332419"/>
    <trip id="veh276" type="veh_passenger" depart="552.00" departLane="best" from="649514784" to="840026355#0"/>
    <trip id="veh279" type="veh_passenger" depart="558.00" departLane="best" from="25794060#2" to="650444344#1"/>
    <trip id="veh282" type="veh_passenger" depart="564.00" departLane="best" departSpeed="max" from="691383611" to="14305591#2"/>
    <trip id="veh283" type="veh_passenger" depart="566.00" departLane="best" from="279670278" to="592339825#2"/>
    <trip id="veh284" type="veh_passenger" depart="568.00" departLane="best" from="226002322#5" to="-14313657#0"/>
    <trip id="veh285" type="veh_passenger" depart="570.00" departLane="best" from="691372279" to="-734006551#7"/>
    <trip id="veh286" type="veh_passenger" depart="572.00" departLane="best" from="-88794279#3" to="658515414#2"/>
    <trip id="veh288" type="veh_passenger" depart="576.00" departLane="best" from="601999668#0" to="14316888"/>
    <trip id="veh289" type="veh_passenger" depart="578.00" departLane="best" from="-14301362#2" to="814781109#4"/>
    <trip id="veh290" type="veh_passenger" depart="580.00" departLane="best" departSpeed="max" from="35815770" to="651364906-AddedOnRampEdge"/>
    <trip id="veh291" type="veh_passenger" depart="582.00" departLane="best" from="600712593#5" to="600069615#2"/>
    <trip id="veh292" type="veh_passenger" depart="584.00" departLane="best" departSpeed="max" from="35815770" to="651364958#4"/>
    <trip id="veh293" type="veh_passenger" depart="586.00" departLane="best" from="-226002370#0" to="14286881"/>
    <trip id="veh294" type="veh_passenger" depart="588.00" departLane="best" from="600712593#6" to="14321263#1"/>
    <trip id="veh295" type="veh_passenger" depart="590.00" departLane="best" from="423692998#2" to="35815863"/>
    <trip id="veh296" type="veh_passenger" depart="592.00" departLane="best" from="359235004" to="226002415#3"/>
    <trip id="veh297" type="veh_passenger" depart="594.00" departLane="best" from="649705403#1" to="152183108"/>
    <trip id="veh298" type="veh_passenger" depart="596.00" departLane="best" from="601999668#3" to="14315445#3"/>
    <trip id="veh299" type="veh_passenger" depart="598.00" departLane="best" from="-776081891" to="-423690870#2"/>
    <trip id="veh300" type="veh_passenger" depart="600.00" departLane="best" from="-734006551#4" to="130776866#1"/>
    <trip id="veh301" type="veh_passenger" depart="602.00" departLane="best" from="350946286#3" to="649705401#8"/>
    <trip id="veh302" type="veh_passenger" depart="604.00" departLane="best" from="848246772#1" to="39514254-AddedOffRampEdge"/>
    <trip id="veh303" type="veh_passenger" depart="606.00" departLane="best" from="14314595#3" to="-226002383#4"/>
    <trip id="veh304" type="veh_passenger" depart="608.00" departLane="best" from="-776580039" to="14294590"/>
    <trip id="veh305" type="veh_passenger" depart="610.00" departLane="best" from="-705613696#1" to="-14303244#1"/>
    <trip id="veh306" type="veh_passenger" depart="612.00" departLane="best" from="359235005#2" to="14316888"/>
    <trip id="veh307" type="veh_passenger" depart="614.00" departLane="best" from="845025387#0" to="423696022"/>
    <trip id="veh308" type="veh_passenger" depart="616.00" departLane="best" from="601618367#1" to="-423692923#1"/>
    <trip id="veh311" type="veh_passenger" depart="622.00" departLane="best" departSpeed="max" from="310285299" to="269922623#2"/>
    <trip id="veh312" type="veh_passenger" depart="624.00" departLane="best" from="-734006551#4" to="-14320655#3"/>
    <trip id="veh313" type="veh_passenger" depart="626.00" departLane="best" from="776580024" to="35815881"/>