<?xml version="1.0" encoding="UTF-8"?>

<!-- generated on 09/24/20 15:55:15 by Eclipse SUMO duarouter Version 1.6.0
<configuration xmlns:xsi="http://www.w3.org/2001/XMLSchema-instance" xsi:noNamespaceSchemaLocation="http://sumo.dlr.de/xsd/duarouterConfiguration.xsd">

    <input>
        <net-file value="osm.net.xml"/>
        <route-files value="osm.bus.trips.xml"/>
    </input>

    <output>
        <output-file value="routes.rou.xml"/>
        <alternatives-output value="routes.rou.alt.xml"/>
    </output>

    <time>
        <begin value="0"/>
        <end value="1800.0"/>
    </time>

    <report>
        <no-warnings value="true"/>
        <ignore-errors value="true"/>
        <no-step-log value="true"/>
    </report>

</configuration>
-->

<routes xmlns:xsi="http://www.w3.org/2001/XMLSchema-instance" xsi:noNamespaceSchemaLocation="http://sumo.dlr.de/xsd/routes_file.xsd">
    <vType id="bus_bus" vClass="bus"/>
    <vehicle id="bus0" type="bus_bus" depart="0.00" departLane="best">
        <route edges="491477891#0 491477891#1 491260609 791907638#0 651269277#1 651269277#2 651269277#3 600711509 14304740 14304740-AddedOffRampEdge 651364932 446966559 523576995 359235005#0 359235005#1 359235005#2 674621858#1 674621858#2 840026354#0 840026354#1 840026355#0 14305591#3 14305591#4 14305591#5 14305591#6 -14305591#6"/>
    </vehicle>
    <vehicle id="bus1" type="bus_bus" depart="8.00" departLane="best" departSpeed="max">
        <route edges="130359176 178416665 172747732 52825134 82877385 705922541 734006551#1 734006551#2 -734006551#2"/>
    </vehicle>
    <vehicle id="bus2" type="bus_bus" depart="16.00" departLane="best">
        <route edges="601618368#0-AddedOffRampEdge 625523023 491477888#2 601617913 625523015 674621859 423692234 848246772#0 14314595#1 14314595#2 14314595#3 600069603#0 600069603#1 843791990#0 843791990#1 843791990#2 843791990#3 423690514 396445684#0 396445684#1 396445684#2 396445683#0 396445683#1 226002384 600064691#0 600064691#1"/>
    </vehicle>
    <vehicle id="bus3" type="bus_bus" depart="24.00" departLane="best">
        <route edges="692134610 691330810 691330808 14304740 14304740-AddedOffRampEdge 651364932 446966559 523576995 359235005#0 359235005#1 359235005#2 609019390#0 609019390#1 226002322#0 226002322#1 226002322#3 226002322#4 226002322#5 226002322#6 226002322#7 226002322#8 -423692235 423692807 601617913 625523015 674621859 423692234 848246772#0 14314595#1 14314595#2 14314595#3 600069606 -14324403#2"/>
    </vehicle>
    <vehicle id="bus4" type="bus_bus" depart="32.00" departLane="best">
        <route edges="198217596#0 198217596#1 198217596#2 198217596#3 198217596#4 198217596#5 198217596#6 198217596#7 198217596#8 491478520#6 491478520#7 491478520#8 594470113#0 594470113#1 -14307499#2 -14307499#1"/>
    </vehicle>
    <vehicle id="bus6" type="bus_bus" depart="48.00" departLane="best" departSpeed="max">
        <route edges="-14305591#7 -14305591#6 -14305591#5 -14305591#4 -14305591#3 -14305591#2 -14305591#0 845025387#0 845025387#1 637446246#1 637446246#2 226002322#0 226002322#1 226002322#3 226002322#4 226002322#5 226002322#6 226002322#7 226002322#8 -423692235 -446966547#1 -446966547#0 -446966548#1 -446966548#0 -649144365"/>
    </vehicle>
    <vehicle id="bus7" type="bus_bus" depart="56.00" departLane="best">
        <route edges="523572054#0 -523572054#0 -523572059 523572062#0 523572062#1 423693001#0 423693001#1 423693001#2 423692998#0 423692998#1 423692998#2 491478520#4 491478520#5 491478520#6 491478520#7 491478520#8 650444345#2 600051342 423696022 14321263#0 14321263#1 446966564 691335275 651364931 692134608 691330810 691330804 691330807 39514122 14316888 151998674 35815863"/>
    </vehicle>
    <vehicle id="bus8" type="bus_bus" depart="64.00" departLane="best">
        <route edges="-651364958#4 226002314#0 226002314#1 226002314#3 226002314#4 226002314#5 226002383#0 226002383#1 226002383#3 226002383#4 226002383#5 226002383#6 130776867#4 269922623#1 269922623#2 269922623#3 269922623#4 269922644#0 269922644#1 523572062#0 523572062#1 423693001#0 423693001#1 423693001#2 423693000"/>
    </vehicle>
    <vehicle id="bus9" type="bus_bus" depart="72.00" departLane="best">
        <route edges="651269322#1 279670278 279670279#0 279670279#1 279670279#2-AddedOnRampEdge 279670279#2 198217596#0 198217596#1 198217596#2 198217596#3 198217596#4 198217596#5 198217596#6 198217596#7 198217596#8 491478520#6 491478520#7 491478520#8 650444345#2 600051342 423696022 14321263#0 14321263#1 600227250 600711510#0 600711510#1 651269275 524550931#0 524550931#1 524550931#2 524550931#3 600708019#0 600708019#1 600708019#2 600708019#3 -130776866#1"/>
    </vehicle>
    <vehicle id="bus10" type="bus_bus" depart="80.00" departLane="best">
        <route edges="82877385 -705608737#1 -705608737#0 14298867#0 14298867#1 14298867#2 14324403#0 14324403#1 14324403#2 446966544#0 446966544#1 446966544#2 649705403#0 649705403#1 649705403#2 14318520#0 14318520#3"/>
    </vehicle>
    <vehicle id="bus11" type="bus_bus" depart="88.00" departLane="best" departSpeed="max">
        <route edges="691332401 691332409#0 691332409#0-AddedOffRampEdge 691332409#1 -776081891 776580027#0 692140748#2 692140748#3 359235005#0 359235005#1 359235005#2 609019390#0 609019390#1 226002322#0 226002322#1 226002322#3 226002322#4 226002322#5 226002322#6 226002322#7 226002322#8 -423692235 -446966547#1 446966547#1"/>
    </vehicle>
    <vehicle id="bus12" type="bus_bus" depart="96.00" departLane="best">
        <route edges="651269312#1 651269312#2 651269312#3 625498786#2 -734006551#7 -734006551#6 -734006551#5 -734006551#4 -734006551#2 -734006551#1 -734006551#0 705613696#0 705613696#1 625523022#0 625523022#2 625523018 625523016#0 625523016#1 625523016#2 625523016#3 625523016#4 848246775 -674621859 -625523015 601618367#0 601618367#1 -423692807 423692235 14320536#0 14320536#1 14320536#2 14320536#3 14320536#4 14320536#5 14320536#6 14320536#7 609019390#0"/>
    </vehicle>
    <vehicle id="bus13" type="bus_bus" depart="104.00" departLane="best">
        <route edges="279670278 279670279#0 279670279#1 279670279#2-AddedOnRampEdge 279670279#2 198217596#0 198217596#1 198217596#2 198217596#3 198217596#4 198217596#5 198217596#6 198217596#7 198217596#8 649705401#1 649705401#2 649705401#3 649705401#4 649705401#5 649705401#7 649705401#8 649705401#11 649705401#12 649705401#13 649705401#14 650732311#0 650732311#1 226002348#0 226002348#1 226002348#2 226002348#3 226002348#4 226002348#5 226002348#6 226002348#7 226002348#8 226002348#9 -14320770#3 -14320770#2 843791992#2"/>
    </vehicle>
    <vehicle id="bus14" type="bus_bus" depart="112.00" departLane="best">
        <route edges="14320655#7 692140750 692140748#2 692140748#3 423850575#0 423850575#1 446966564 691335275 651364931 692134608 691330810 691330804 691330807 39514122 14316888 691372278 691372279-AddedOnRampEdge 691372279 691372279-AddedOffRampEdge 123222364 35815881 130355943 130355957 35823485"/>
    </vehicle>
    <vehicle id="bus15" type="bus_bus" depart="120.00" departLane="best">
        <route edges="674621860 14295418#0 14295418#1 180421753#1 180421753#2 649144366 649514784 143060341 14324847#0 14324847#1 14324847#2 14324847#3 14324847#4 14324847#5 423693001#0 423693001#1 423693001#2 423692998#0 423692998#1 423692998#2 491478520#4 491478520#5"/>
    </vehicle>
    <vehicle id="bus17" type="bus_bus" depart="136.00" departLane="best">
        <route edges="600075999#0 -600075999#0 600076000#0 600076000#1 600076000#2 600076000#3 658515414#0 658515414#1 658515414#2 600069606 446966544#0 446966544#1 446966544#2 -14315164#2 -14315164#1 -14315164#0"/>
    </vehicle>
    <vehicle id="bus18" type="bus_bus" depart="144.00" departLane="best">
        <route edges="-705613696#0 705922541 -734006551#0 705613696#0 705613696#1 625523022#0 625523022#2 625523018 625523016#0 625523016#1 625523016#2 625523016#3 625523016#4 848246775 -674621859 -625523015 601618367#0 601618367#1 -423692807 423692235 14320536#0 14320536#1 14320536#2 14320536#3 14320536#4 14320536#5 14320536#6 14320536#7 674621858#1 674621858#2 840026354#0 840026354#1 840026355#0 840026355#1 14303244#0"/>
    </vehicle>
    <vehicle id="bus19" type="bus_bus" depart="152.00" departLane="best">
        <route edges="-14321966#2 -14321966#1 -14321966#0 625523018 625523016#0 625523016#1 625523016#2 625523016#3 625523016#4 848246775 -674621859 -625523015 601618367#0 601618367#1 -423692807 423692235 14320536#0 14320536#1 14320536#2 14320536#3 14320536#4 14320536#5 14320536#6 14320536#7 14321263#0 14321263#1 446966564 446966559 776081879 776580023#0-AddedOnRampEdge 776580023#0 776580028 776580026#2-AddedOnRampEdge 776580026#2 776081891 814781109#0 814781109#1 814781109#2 814781109#4 -814781109#4"/>
    </vehicle>
    <vehicle id="bus20" type="bus_bus" depart="160.00" departLane="best">
        <route edges="-226002297#0 -14321966#0 625523018 625523016#0 625523016#1 625523016#2 625523016#3 625523016#4 848246775 -674621859 674621860 14295418#0 14295418#1"/>
    </vehicle>
    <vehicle id="bus21" type="bus_bus" depart="168.00" departLane="best">
        <route edges="491260609 791907638#0 651269277#1 651269277#2 651269277#3 600711509 14304740 14304740-AddedOffRampEdge 651364932 446966559 523576995 359235005#0 359235005#1 359235005#2 609019390#0 609019390#1 423696022 14321263#0"/>
    </vehicle>
    <vehicle id="bus22" type="bus_bus" depart="176.00" departLane="best">
        <route edges="14320536#5 14320536#6 14320536#7 674621858#1 674621858#2 840026354#0 840026354#1 840026355#0 840026355#1 840026355#2 651269291#1 -14320655#1 -14320655#0 14319140#0 14319140#1 14319140#2 14319140#3 14319140#4 -651269293#1"/>
    </vehicle>
    <vehicle id="bus23" type="bus_bus" depart="184.00" departLane="best">
        <route edges="-88794279#5 130776851#1 601999668#3 601999668#4 651269277#1 651269277#2 651269277#3 600711509 14304740 14304740-AddedOffRampEdge 651364932 446966559 523576995 359235005#0 359235005#1 359235005#2 609019390#0 609019390#1 423696022 14321263#0 776580036#0"/>
    </vehicle>
    <vehicle id="bus24" type="bus_bus" depart="192.00" departLane="best">
        <route edges="523567859#1 600096663 -625498788#1 -625498788#0 625498786#0 -176690367#2 -176690367#1 -176690367#0 705608732#0 457817661#0 457817661#1-AddedOnRampEdge 457817661#1"/>
    </vehicle>
    <vehicle id="bus25" type="bus_bus" depart="200.00" departLane="best">
        <route edges="-446966548#1 446966548#1 446966547#0 446966547#1 423692235 14320536#0 14320536#1 14320536#2 14320536#3 14320536#4 14320536#5 14320536#6 14320536#7 609019390#0"/>
    </vehicle>
    <vehicle id="bus26" type="bus_bus" depart="208.00" departLane="best">
        <route edges="-423692807 423692235 -423692235 423692807 601617913 625523015 674621859 423692234 848246772#0 14314595#1 14314595#2 14314595#3 600069606 -14324403#2 -14324403#1 -14324403#0 14324403#0"/>
    </vehicle>
    <vehicle id="bus27" type="bus_bus" depart="216.00" departLane="best">
        <route edges="88794279#2 -88794279#2 130776853#2 130776853#3 601999668#4 651269277#1 651269277#2 651269277#3 600711509 14304740 14304740-AddedOffRampEdge 625523027 651364931 692134608 691330810 691330804 691330807 39514122 14316888 691372278 691372279-AddedOnRampEdge 691372279 691372279-AddedOffRampEdge 14286881 172747732 52825134"/>
    </vehicle>
    <vehicle id="bus28" type="bus_bus" depart="224.00" departLane="best">
        <route edges="350946286#3 -625523014 625523018 625523016#0 625523016#1 625523016#2 625523016#3 625523016#4 848246775 -674621859 -625523015 601618367#0 601618367#1 -423692807 423692235 14320536#0 14320536#1 14320536#2 14320536#3 14320536#4 14320536#5 14320536#6 14320536#7 674621858#1 674621858#2 840026354#0 840026354#1 840026355#0 -14305591#2 -14305591#0 14316799#0 14316799#1 14316799#2 14316799#3 -600072508 600072508"/>
    </vehicle>
    <vehicle id="bus29" type="bus_bus" depart="232.00" departLane="best">
        <route edges="691330807 39514122 14316888 691372278 691372279-AddedOnRampEdge 691372279 691372279-AddedOffRampEdge 14286881 172747732 52825134 82877385 705613696#0 705613696#1 625523022#0 625523022#2 625523018 625523016#0 625523016#1 625523016#2 625523016#3 625523016#4 848246775 -674621859 -625523015 601618367#0 601618367#1 -423692807 423692235 14320536#0 14320536#1 14320536#2 14320536#3 14320536#4 14320536#5 14320536#6 14320536#7 609019390#0 609019390#1 14294590 650444344#0"/>
    </vehicle>
    <vehicle id="bus30" type="bus_bus" depart="240.00" departLane="best">
        <route edges="14303244#3 -14303244#3 -14303244#2 -14303244#1 -14303244#0 840026355#2 -14303243#2 -14303243#0 651269290 845025387#0 845025387#1 637446246#1 637446246#2 423696022 14321263#0 14321263#1 600227250 600711510#0 600711510#1 651269275 524550931#0 524550931#1 524550931#2 524550931#3 600708019#0 600708019#1 600708019#2 130776870#0 130776870#1"/>
    </vehicle>
    <vehicle id="bus31" type="bus_bus" depart="248.00" departLane="best">
        <route edges="-650732310#0 -600075999#4 -600075999#2 -600075999#1 -600075999#0 143060341 600081398 600060710#0 600060710#1 594470093 194827164 651269270 600051342 423696022 14321263#0 14321263#1 446966564 446966559 776081879 776580023#0-AddedOnRampEdge 776580023#0 776580028 776580026#2-AddedOnRampEdge 776580026#2 776081891 814781109#0 814781109#1 814781109#2 814781109#4"/>
    </vehicle>
    <vehicle id="bus32" type="bus_bus" depart="256.00" departLane="best">
        <route edges="691372279-AddedOffRampEdge 14286881 172747732 52825134 82877385 705613696#0 705613696#1 625523022#0 625523022#2 625523018 625523016#0 625523016#1 625523016#2 625523016#3 625523016#4 848246775 -674621859 -625523015 601618367#0 601618367#1 14312503#0"/>
    </vehicle>
    <vehicle id="bus33" type="bus_bus" depart="264.00" departLane="best">
        <route edges="523572062#1 -14324847#5 -14324847#4 649705401#12 649705401#13 649705401#14 650732311#0 650732311#1 226002348#0 226002348#1 226002348#2 226002348#3 226002348#4 226002348#5 226002348#6 226002348#7 226002348#8 226002348#9 226002348#10 226002348#12 226002348#13 226002348#15 226002348#16 226002348#18 226002348#19 649705402#0 649705402#1 649705402#2 649705402#3 651269312#0 651269312#1 651269312#2 651269312#3 -176690367#2 -176690367#1 -176690367#0 705608732#0 457817661#0 457817661#1-AddedOnRampEdge 457817661#1 651364936 651364936-AddedOffRampEdge 691378746 691378746-AddedOffRampEdge 38124074 38124074-AddedOffRampEdge 691477442 152183108"/>
    </vehicle>
    <vehicle id="bus35" type="bus_bus" depart="280.00" departLane="best" departSpeed="max">
        <route edges="35815770 674621864 14287880 14287880-AddedOffRampEdge 776580021 674621863 776580024 523576995 423850575#0 423850575#1 600227250 600711510#0 600711510#1 651269275 524550931#0 524550931#1 524550931#2 524550931#3 600708019#0 600708019#1 600708019#2 600708019#3 600708019#4 -130776860#1 -130776860#0 130776860#0"/>
    </vehicle>
    <vehicle id="bus36" type="bus_bus" depart="288.00" departLane="best">
        <route edges="39514122 14316888 691372278 691372279-AddedOnRampEdge 691372279 691372279-AddedOffRampEdge 14286881 172747732 52825134 700820388 700820388-AddedOffRampEdge 14280990 700806784 182019776#0 700807056 651364904-AddedOnRampEdge 651364904 700821302-AddedOnRampEdge 700821302"/>
    </vehicle>
    <vehicle id="bus37" type="bus_bus" depart="296.00" departLane="best">
        <route edges="14324847#0 -14324847#0 -423692923#1 -423692923#0 -650444346 226002322#7 226002322#8 -423692235 423692807 601617913 625523015 674621859 423692234 848246772#0 848246772#1 848246772#2 848246772#3 848246772#4 848246772#5 848246772#6 226002336 625523019#0 625523019#1 -705613696#1 -705613696#0 -705608737#1"/>
    </vehicle>
    <vehicle id="bus38" type="bus_bus" depart="304.00" departLane="best">
        <route edges="gneE3 gneE2 350946286#3 -625523014 625523018 625523016#0 625523016#1 625523016#2 625523016#3 14314595#1 14314595#2 14314595#3 600069603#0 600069603#1 843791990#0 843791990#1 843791990#2 843791990#3 423690515#0 423690515#1 269922623#1 269922623#2"/>
    </vehicle>
    <vehicle id="bus39" type="bus_bus" depart="312.00" departLane="best">
        <route edges="-14324847#1 -14324847#0 600081396 600076000#0 600076000#1 600076000#2 600076000#3 658515414#0 658515414#1 658515414#2 600069606 446966544#0 446966544#1 446966544#2 -14315164#2 -14315164#1 -14315164#0"/>
    </vehicle>
    <vehicle id="bus40" type="bus_bus" depart="320.00" departLane="best">
        <route edges="-226002314#4 226002314#4 226002314#5 226002383#0 226002383#1 226002383#3 226002383#4 226002383#5 226002383#6 130776867#4 269922623#1 269922623#2 269922623#3 269922623#4 269922644#0 269922644#1 523572059 523572054#0 523572054#2 523572054#3"/>
    </vehicle>
    <vehicle id="bus41" type="bus_bus" depart="328.00" departLane="best">
        <route edges="650732310#4 -650732310#4 -650732310#3 -650732310#2 -650732310#1 -650732310#0 650732311#0 650732311#1 226002348#0 226002348#1 226002348#2 226002348#3 226002348#4 226002348#5 226002348#6 226002348#7 226002348#8 226002348#9 226002348#10 226002348#12 226002348#13 226002348#15 226002348#16 226002348#18 226002348#19 649705402#0 649705402#1 649705402#2 649705402#3 651269312#0 -423690870#5 -423690870#4 -423690870#3 -423690870#2 -423690870#1 -423690870#0 -14321966#2 -14321966#1 226002297#0 226002297#1 226002297#2 226002297#3"/>
    </vehicle>
    <vehicle id="bus42" type="bus_bus" depart="336.00" departLane="best">
        <route edges="-14319140#4 -14319140#3 -14319140#2 -14319140#1 -14319140#0 840025188#4 840025188#5 651269290 845025387#0 845025387#1 637446246#1 637446246#2 226002322#0 226002322#1 226002322#3 226002322#4 226002322#5 226002322#6 226002322#7 226002322#8 -423692235 423692807 601617913 625523015 674621859 423692234 848246772#0 14314595#1 14314595#2 14314595#3 600069606 -14324403#2 14324403#2"/>
    </vehicle>
    <vehicle id="bus43" type="bus_bus" depart="344.00" departLane="best">
        <route edges="gneE1 gneE2 350946286#3 -625523014 625523018 625523016#0 625523016#1 625523016#2 625523016#3 625523016#4 848246775 -674621859 -625523015 601618367#0 601618367#1 -423692807 423692235 14320536#0 14320536#1 14320536#2 14320536#3 14320536#4 14320536#5 14320536#6 14320536#7 609019390#0 609019390#1 14294590 650444344#0 650444344#1 600051347#2 600051347#3 600051347#4 600051347#5 269922642#0 269922642#1 269922642#2 269922642#3 269922642#3-AddedOffRampEdge 146611208#0 146611208#1 279670279#2-AddedOnRampEdge 279670279#2"/>
    </vehicle>
    <vehicle id="bus44" type="bus_bus" depart="352.00" departLane="best">
        <route edges="843791991 -600069603#1 -600069603#0 600069606 -14324403#2 -14324403#1 -14324403#0 -14298867#2 -14298867#1 -14298867#0 705608737#0 705608737#1 705608730#0 705608730#1 705608730#2 457817661#0 457817661#1-AddedOnRampEdge 457817661#1 651364936 651364936-AddedOffRampEdge 14291397 39514254 39514254-AddedOffRampEdge 691359226 691359208"/>
    </vehicle>
    <vehicle id="bus45" type="bus_bus" depart="360.00" departLane="best">
        <route edges="-14300218#0 845025387#1 637446246#1 637446246#2 226002322#0 226002322#1 226002322#3 226002322#4 226002322#5 226002322#6 226002322#7 226002322#8 -423692235 423692807 601617913 601618367#0 601618367#1"/>
    </vehicle>
    <vehicle id="bus47" type="bus_bus" depart="376.00" departLane="best">
        <route edges="-88794279#5 130776851#1 600708019#3 600708019#4 gneE1 gneE2 350946286#3 -625523014 625523019#0 625523019#1 554354733#0"/>
    </vehicle>
    <vehicle id="bus48" type="bus_bus" depart="384.00" departLane="best">
        <route edges="226002348#12 -843791990#1 -843791990#0 -600069603#1 -600069603#0 600069615#2 658515413 594470082 649514784 143060341 -423692923#1 -423692923#0 -650444346 226002322#7 828220468"/>
    </vehicle>
    <vehicle id="bus49" type="bus_bus" depart="392.00" departLane="best">
        <route edges="691372279-AddedOffRampEdge 14286881 172747732 52825134 82877385 705613696#0 705613696#1 625523022#0 625523022#2 625523014 600708010 600712598 601999668#0 601999668#1 -130776860#1 130776860#1"/>
    </vehicle>
    <vehicle id="bus52" type="bus_bus" depart="416.00" departLane="best">
        <route edges="423692999#1 423692999#2 423693000 -14324847#5 -14324847#4 -14324847#3 -14324847#2 -14324847#1 -14324847#0 -423692923#1 -423692923#0 -650444346 226002322#7 226002322#8 -423692235 423692807 601617913 625523015 674621859 423692234 848246772#0 848246772#1 848246772#2 848246772#3 848246772#4 848246772#5 848246772#6 226002336 625523014 600708010 600712598 600712591 600712596#1 -329178216#1"/>
    </vehicle>
    <vehicle id="bus53" type="bus_bus" depart="424.00" departLane="best">
        <route edges="630995249 600711510#0 600711510#1 651269275 524550931#0 524550931#1 524550931#2 524550931#3 600708019#0 600708019#1 600708019#2 600708019#3 600708019#4 gneE1 gneE2 350946286#3"/>
    </vehicle>
    <vehicle id="bus54" type="bus_bus" depart="432.00" departLane="best">
        <route edges="649705402#0 649705402#1 649705402#2 649705402#3 651269312#0 651269312#1 651269312#2 651269312#3 -176690367#2 -176690367#1 -176690367#0 281403363"/>
    </vehicle>
    <vehicle id="bus55" type="bus_bus" depart="440.00" departLane="best">
        <route edges="-130776853#0 -600712593#7 -600712593#6 -600712593#5 -600712593#4 -600712593#3 -600712593#2 gneE3 gneE2 350946286#3 -625523014 14321966#0 14321966#1 14321966#2 14298867#0 14298867#1 14298867#2 14324403#0 14324403#1 14324403#2 446966544#0 446966544#1 446966544#2 -14315164#2 -14315164#1 14315164#1"/>
    </vehicle>
    <vehicle id="bus57" type="bus_bus" depart="456.00" departLane="best">
        <route edges="14301362#3 -14301362#3 -14301362#2 601999668#3 601999668#4 651269277#1 651269277#2 651269277#3 600711509 14304740 14304740-AddedOffRampEdge 651364932 446966559 523576995 359235005#0 359235005#1 359235005#2 609019390#0 609019390#1 14294590 650444344#0 650444344#1 14315165#0 14315165#1 14315165#2 -14316799#3"/>
    </vehicle>
    <vehicle id="bus59" type="bus_bus" depart="472.00" departLane="best">
        <route edges="-14322061#8 14322061#8 14322061#9 649705401#2 649705401#3 649705401#4 649705401#5 649705401#7 649705401#8 649705401#11 649705401#12 649705401#13 649705401#14 650732311#0 650732311#1 226002348#0 226002348#1 226002348#2 226002348#3 226002348#4 226002348#5 226002348#6 226002348#7 226002348#8 226002348#9 226002348#10 226002348#12 226002348#13 226002348#15 226002348#16 226002348#18 226002348#19 649705402#0 649705402#1 649705402#2 649705402#3 651269312#0 651269312#1 651269312#2 651269312#3 651269310 625498788#0 625498788#1 256406628#0 256406628#3 226002415#0 226002415#2"/>
    </vehicle>
    <vehicle id="bus60" type="bus_bus" depart="480.00" departLane="best">
        <route edges="-14320655#1 -14320655#0 840025188#4 840025188#5 651269290 845025387#0 845025387#1 637446246#1 637446246#2 14294590 650444344#0 650444344#1 600051347#2 600051347#3 649705401#1"/>
    </vehicle>
    <vehicle id="bus61" type="bus_bus" depart="488.00" departLane="best">
        <route edges="226002370#1 -600075999#1 -600075999#0 143060341 600081398 600060710#0 600060710#1 594470093 194827164 651269270 600051342 423696022 14321263#0 14321263#1 446966564 691335275 651364931 692134608 691330810 691330804 691330807 39514122 14316888 691372278 691372279-AddedOnRampEdge 691372279 691372279-AddedOffRampEdge 123222364 35815881 130355943 130355957 35823485"/>
    </vehicle>
    <vehicle id="bus62" type="bus_bus" depart="496.00" departLane="best">
        <route edges="198217596#1 198217596#2 198217596#3 198217596#4 198217596#5 198217596#6 198217596#7 198217596#8 649705401#1 649705401#2 649705401#3 649705401#4 649705401#5 649705401#7 649705401#8 649705401#11 649705401#12 649705401#13 649705401#14 650732311#0 650732311#1 226002348#0 226002348#1 226002348#2 226002348#3 226002348#4 226002348#5 226002348#6 226002348#7 226002348#8 226002348#9 226002348#10 226002348#12 226002348#13 226002348#15 226002348#16 226002348#18 226002348#19 649705402#0 649705402#1 649705402#2 649705402#3 651269312#0 423690870#6 423690870#7 651364957#0 651364957#1 -651364957#1"/>
    </vehicle>
    <vehicle id="bus63" type="bus_bus" depart="504.00" departLane="best" departSpeed="max">
        <route edges="-600712596#2 -600712596#1 -600712596#0 gneE2 350946286#3 -625523014 14321966#0 14321966#1 14321966#2 423690870#0 423690870#1 423690870#2 423690870#3 423690870#4 423690870#5 423690870#6 423690870#7 651364957#0 651364957#1 -14312265#3 -14312265#2 -14312265#1 14312265#1"/>
    </vehicle>
    <vehicle id="bus64" type="bus_bus" depart="512.00" departLane="best">
        <route edges="gneE0 130776867#4 256406637#1 822081470#0 822081470#1 822081470#2 822081470#3 822081470#4 822081470#5 446966545#0 446966545#1 180421753#0 -14295418#1 -14295418#0 -674621860 -625523015 601618367#0 601618367#1 -423692807 423692235 14320536#0 14320536#1 14320536#2 14320536#3 14320536#4 14320536#5 14320536#6 14320536#7 14321263#0 14321263#1 446966564 691335275 651364931 692134609 198217581 592339825#0 592339825#1 592339825#2"/>
    </vehicle>
    <vehicle id="bus65" type="bus_bus" depart="520.00" departLane="best">
        <route edges="226002312 843791992#0 843791992#1 -14320770#1 -14320770#0 658515413 594470082 649514784 143060341 600081398 600060710#0 600060710#1 651269272#0 651269272#1 600051347#2 600051347#3 600051347#4 600051347#5 269922642#0"/>
    </vehicle>
    <vehicle id="bus66" type="bus_bus" depart="528.00" departLane="best">
        <route edges="-226002370#0 649705400#0 649705400#1 226002348#0 226002348#1 226002348#2 226002348#3 226002348#4 226002348#5 226002348#6 226002348#7 226002348#8 226002348#9 226002348#10 226002348#12 226002348#13 226002348#15 226002348#16 226002348#18 226002348#19 649705402#0 649705402#1 649705402#2 649705402#3 651269312#0 651269312#1 651269312#2 651269312#3 625498786#2 -734006551#7 -734006551#6 -734006551#5 -734006551#4"/>
    </vehicle>
    <vehicle id="bus67" type="bus_bus" depart="536.00" departLane="best">
        <route edges="14314230#2 14314230#3 -594470117#1 -594470117#0 -600072508 198217596#0 198217596#1 198217596#2 198217596#3 198217596#4 198217596#5 198217596#6 198217596#7 198217596#8 600051347#4 600051347#5 423692999#1"/>
    </vehicle>
    <vehicle id="bus68" type="bus_bus" depart="544.00" departLane="best">
        <route edges="-14320655#3 -14320655#2 -14320655#1 -14320655#0 840025188#4 840025188#5 651269290 845025387#0 845025387#1 637446246#1 637446246#2 14294590 650444344#0 650444344#1 600051347#2 600051347#3 649705401#1 649705401#2 649705401#3 649705401#4 649705401#5 649705401#7 649705401#8 649705401#11 649705401#12 649705401#13 649705401#14 650732310#0 650732310#1 650732310#2 650732310#3 650732310#4 523572059 523572054#0 523572054#2 523572054#3"/>
    </vehicle>
    <vehicle id="bus70" type="bus_bus" depart="560.00" departLane="best" departSpeed="max">
        <route edges="-776081887 14320655#7 692140750 692140748#2 692140748#3 359235005#0 359235005#1 359235005#2 609019390#0 609019390#1 14294590 650444344#0 650444344#1 600051347#2 600051347#3 649705401#1 649705401#2 649705401#3 649705401#4 600060667#0"/>
    </vehicle>
    <vehicle id="bus71" type="bus_bus" depart="568.00" departLane="best">
        <route edges="776580024 523576995 359235005#0 359235005#1 359235005#2 609019390#0 609019390#1 14294590 650444344#0 650444344#1 600051347#2 600051347#3 649705401#1 649705401#2 649705401#3 649705401#4 649705401#5 649705401#7 649705401#8 649705401#11 649705401#12 649705401#13 649705401#14 650732311#0 650732311#1 226002348#0 226002348#1 226002348#2 226002348#3 226002348#4 226002348#5 226002348#6 226002348#7 226002348#8 226002348#9 226002348#10 226002348#12 843791990#2 843791990#3 423690515#0"/>
    </vehicle>
    <vehicle id="bus72" type="bus_bus" depart="576.00" departLane="best">
        <route edges="651269312#1 651269312#2 651269312#3 625498786#2 -734006551#7 -734006551#6 -734006551#5 -734006551#4 -734006551#2 -734006551#1 -734006551#0 705613696#0 705613696#1 625523022#0 625523022#2 625523014 600708010 600712598 gneE4 600712593#2 600712593#3 600712593#4 600712593#5 -600712593#5"/>
    </vehicle>
    <vehicle id="bus74" type="bus_bus" depart="592.00" departLane="best">
        <route edges="198217596#2 198217596#3 198217596#4 198217596#5 198217596#6 198217596#7 198217596#8 491478520#6 491478520#7 491478520#8 650444345#2 600051342 226002322#0 226002322#1 226002322#3 226002322#4 226002322#5 226002322#6 226002322#7 226002322#8 -423692235 423692807 601617913 625523015 674621859 423692234 848246773 848246774#0 848246774#1 848246774#2 226002373#1"/>
    </vehicle>
    <vehicle id="bus75" type="bus_bus" depart="600.00" departLane="best">
        <route edges="600712593#5 600712593#6 600712593#7 130776853#0 130776853#1 130776853#2 130776853#3 601999668#4 491477888#0 491477888#1 491477888#2 14312503#0 14312503#1 491477892 649144366 649514784 143060341 600081398 600060677"/>
    </vehicle>
    <vehicle id="bus77" type="bus_bus" depart="616.00" departLane="best">
        <route edges="14324847#4 14324847#5 423693001#0 423693001#1 423693001#2 423692998#0 423692998#1 423692998#2 491478520#4 491478520#5 491478520#6 491478520#7 491478520#8 650444345#2 600051342 423696022 674621858#1 674621858#2 840026354#0 840026354#1 840026355#0 840026355#1 840026355#2 651269291#1 -14320655#1 -14320655#0 14319140#0"/>
    </vehicle>
    <vehicle id="bus79" type="bus_bus" depart="632.00" departLane="best">
        <route edges="198217596#0 198217596#1 198217596#2 198217596#3 198217596#4 198217596#5 198217596#6 198217596#7 198217596#8 649705401#1 649705401#2 649705401#3 649705401#4 649705401#5 649705401#7 649705401#8 649705401#11 649705401#12 649705401#13 649705401#14 650732311#0 650732311#1 226002348#0 226002348#1 226002348#2 226002348#3 226002348#4 226002348#5 822081470#2 822081470#3 822081470#4 822081470#5 446966545#0 446966545#1 180421753#0 -14295418#1 14295418#1"/>
    </vehicle>
    <vehicle id="bus81" type="bus_bus" depart="648.00" departLane="best" departSpeed="max">